*SPEF "ieee 1481-1999"
*DESIGN "user_project_wrapper"
*DATE "11:11:11 Fri 11 11, 1111"
*VENDOR "OpenRCX"
*PROGRAM "Parallel Extraction"
*VERSION "1.0"
*DESIGN_FLOW "NAME_SCOPE LOCAL" "PIN_CAP NONE"
*DIVIDER /
*DELIMITER :
*BUS_DELIMITER []
*T_UNIT 1 NS
*C_UNIT 1 PF
*R_UNIT 1 OHM
*L_UNIT 1 HENRY

*NAME_MAP
*1 io_in[0]
*2 io_in[10]
*3 io_in[11]
*4 io_in[12]
*5 io_in[13]
*6 io_in[14]
*7 io_in[15]
*8 io_in[16]
*9 io_in[17]
*10 io_in[18]
*11 io_in[19]
*12 io_in[1]
*13 io_in[20]
*14 io_in[21]
*15 io_in[22]
*16 io_in[23]
*17 io_in[24]
*18 io_in[25]
*19 io_in[26]
*20 io_in[27]
*21 io_in[28]
*22 io_in[29]
*23 io_in[2]
*24 io_in[30]
*25 io_in[31]
*26 io_in[32]
*27 io_in[33]
*28 io_in[34]
*29 io_in[35]
*30 io_in[36]
*31 io_in[37]
*32 io_in[3]
*33 io_in[4]
*34 io_in[5]
*35 io_in[6]
*36 io_in[7]
*37 io_in[8]
*38 io_in[9]
*39 io_oeb[0]
*40 io_oeb[10]
*41 io_oeb[11]
*42 io_oeb[12]
*43 io_oeb[13]
*44 io_oeb[14]
*45 io_oeb[15]
*46 io_oeb[16]
*47 io_oeb[17]
*48 io_oeb[18]
*49 io_oeb[19]
*50 io_oeb[1]
*51 io_oeb[20]
*52 io_oeb[21]
*53 io_oeb[22]
*54 io_oeb[23]
*55 io_oeb[24]
*56 io_oeb[25]
*57 io_oeb[26]
*58 io_oeb[27]
*59 io_oeb[28]
*60 io_oeb[29]
*61 io_oeb[2]
*62 io_oeb[30]
*63 io_oeb[31]
*64 io_oeb[32]
*65 io_oeb[33]
*66 io_oeb[34]
*67 io_oeb[35]
*68 io_oeb[36]
*69 io_oeb[37]
*70 io_oeb[3]
*71 io_oeb[4]
*72 io_oeb[5]
*73 io_oeb[6]
*74 io_oeb[7]
*75 io_oeb[8]
*76 io_oeb[9]
*77 io_out[0]
*78 io_out[10]
*79 io_out[11]
*80 io_out[12]
*81 io_out[13]
*82 io_out[14]
*83 io_out[15]
*84 io_out[16]
*85 io_out[17]
*86 io_out[18]
*87 io_out[19]
*88 io_out[1]
*89 io_out[20]
*90 io_out[21]
*91 io_out[22]
*92 io_out[23]
*93 io_out[24]
*94 io_out[25]
*95 io_out[26]
*96 io_out[27]
*97 io_out[28]
*98 io_out[29]
*99 io_out[2]
*100 io_out[30]
*101 io_out[31]
*102 io_out[32]
*103 io_out[33]
*104 io_out[34]
*105 io_out[35]
*106 io_out[36]
*107 io_out[37]
*108 io_out[3]
*109 io_out[4]
*110 io_out[5]
*111 io_out[6]
*112 io_out[7]
*113 io_out[8]
*114 io_out[9]
*115 la_data_in[0]
*116 la_data_in[10]
*117 la_data_in[11]
*118 la_data_in[12]
*119 la_data_in[13]
*120 la_data_in[14]
*121 la_data_in[15]
*122 la_data_in[16]
*123 la_data_in[17]
*124 la_data_in[18]
*125 la_data_in[19]
*126 la_data_in[1]
*127 la_data_in[20]
*128 la_data_in[21]
*129 la_data_in[22]
*130 la_data_in[23]
*131 la_data_in[24]
*132 la_data_in[25]
*133 la_data_in[26]
*134 la_data_in[27]
*135 la_data_in[28]
*136 la_data_in[29]
*137 la_data_in[2]
*138 la_data_in[30]
*139 la_data_in[31]
*140 la_data_in[32]
*141 la_data_in[33]
*142 la_data_in[34]
*143 la_data_in[35]
*144 la_data_in[36]
*145 la_data_in[37]
*146 la_data_in[38]
*147 la_data_in[39]
*148 la_data_in[3]
*149 la_data_in[40]
*150 la_data_in[41]
*151 la_data_in[42]
*152 la_data_in[43]
*153 la_data_in[44]
*154 la_data_in[45]
*155 la_data_in[46]
*156 la_data_in[47]
*157 la_data_in[48]
*158 la_data_in[49]
*159 la_data_in[4]
*160 la_data_in[50]
*161 la_data_in[51]
*162 la_data_in[52]
*163 la_data_in[53]
*164 la_data_in[54]
*165 la_data_in[55]
*166 la_data_in[56]
*167 la_data_in[57]
*168 la_data_in[58]
*169 la_data_in[59]
*170 la_data_in[5]
*171 la_data_in[60]
*172 la_data_in[61]
*173 la_data_in[62]
*174 la_data_in[63]
*175 la_data_in[6]
*176 la_data_in[7]
*177 la_data_in[8]
*178 la_data_in[9]
*179 la_data_out[0]
*180 la_data_out[10]
*181 la_data_out[11]
*182 la_data_out[12]
*183 la_data_out[13]
*184 la_data_out[14]
*185 la_data_out[15]
*186 la_data_out[16]
*187 la_data_out[17]
*188 la_data_out[18]
*189 la_data_out[19]
*190 la_data_out[1]
*191 la_data_out[20]
*192 la_data_out[21]
*193 la_data_out[22]
*194 la_data_out[23]
*195 la_data_out[24]
*196 la_data_out[25]
*197 la_data_out[26]
*198 la_data_out[27]
*199 la_data_out[28]
*200 la_data_out[29]
*201 la_data_out[2]
*202 la_data_out[30]
*203 la_data_out[31]
*204 la_data_out[32]
*205 la_data_out[33]
*206 la_data_out[34]
*207 la_data_out[35]
*208 la_data_out[36]
*209 la_data_out[37]
*210 la_data_out[38]
*211 la_data_out[39]
*212 la_data_out[3]
*213 la_data_out[40]
*214 la_data_out[41]
*215 la_data_out[42]
*216 la_data_out[43]
*217 la_data_out[44]
*218 la_data_out[45]
*219 la_data_out[46]
*220 la_data_out[47]
*221 la_data_out[48]
*222 la_data_out[49]
*223 la_data_out[4]
*224 la_data_out[50]
*225 la_data_out[51]
*226 la_data_out[52]
*227 la_data_out[53]
*228 la_data_out[54]
*229 la_data_out[55]
*230 la_data_out[56]
*231 la_data_out[57]
*232 la_data_out[58]
*233 la_data_out[59]
*234 la_data_out[5]
*235 la_data_out[60]
*236 la_data_out[61]
*237 la_data_out[62]
*238 la_data_out[63]
*239 la_data_out[6]
*240 la_data_out[7]
*241 la_data_out[8]
*242 la_data_out[9]
*243 la_oenb[0]
*244 la_oenb[10]
*245 la_oenb[11]
*246 la_oenb[12]
*247 la_oenb[13]
*248 la_oenb[14]
*249 la_oenb[15]
*250 la_oenb[16]
*251 la_oenb[17]
*252 la_oenb[18]
*253 la_oenb[19]
*254 la_oenb[1]
*255 la_oenb[20]
*256 la_oenb[21]
*257 la_oenb[22]
*258 la_oenb[23]
*259 la_oenb[24]
*260 la_oenb[25]
*261 la_oenb[26]
*262 la_oenb[27]
*263 la_oenb[28]
*264 la_oenb[29]
*265 la_oenb[2]
*266 la_oenb[30]
*267 la_oenb[31]
*268 la_oenb[32]
*269 la_oenb[33]
*270 la_oenb[34]
*271 la_oenb[35]
*272 la_oenb[36]
*273 la_oenb[37]
*274 la_oenb[38]
*275 la_oenb[39]
*276 la_oenb[3]
*277 la_oenb[40]
*278 la_oenb[41]
*279 la_oenb[42]
*280 la_oenb[43]
*281 la_oenb[44]
*282 la_oenb[45]
*283 la_oenb[46]
*284 la_oenb[47]
*285 la_oenb[48]
*286 la_oenb[49]
*287 la_oenb[4]
*288 la_oenb[50]
*289 la_oenb[51]
*290 la_oenb[52]
*291 la_oenb[53]
*292 la_oenb[54]
*293 la_oenb[55]
*294 la_oenb[56]
*295 la_oenb[57]
*296 la_oenb[58]
*297 la_oenb[59]
*298 la_oenb[5]
*299 la_oenb[60]
*300 la_oenb[61]
*301 la_oenb[62]
*302 la_oenb[63]
*303 la_oenb[6]
*304 la_oenb[7]
*305 la_oenb[8]
*306 la_oenb[9]
*307 user_clock2
*308 user_irq[0]
*309 user_irq[1]
*310 user_irq[2]
*313 wb_clk_i
*314 wb_rst_i
*315 wbs_ack_o
*316 wbs_adr_i[0]
*317 wbs_adr_i[10]
*318 wbs_adr_i[11]
*319 wbs_adr_i[12]
*320 wbs_adr_i[13]
*321 wbs_adr_i[14]
*322 wbs_adr_i[15]
*323 wbs_adr_i[16]
*324 wbs_adr_i[17]
*325 wbs_adr_i[18]
*326 wbs_adr_i[19]
*327 wbs_adr_i[1]
*328 wbs_adr_i[20]
*329 wbs_adr_i[21]
*330 wbs_adr_i[22]
*331 wbs_adr_i[23]
*332 wbs_adr_i[24]
*333 wbs_adr_i[25]
*334 wbs_adr_i[26]
*335 wbs_adr_i[27]
*336 wbs_adr_i[28]
*337 wbs_adr_i[29]
*338 wbs_adr_i[2]
*339 wbs_adr_i[30]
*340 wbs_adr_i[31]
*341 wbs_adr_i[3]
*342 wbs_adr_i[4]
*343 wbs_adr_i[5]
*344 wbs_adr_i[6]
*345 wbs_adr_i[7]
*346 wbs_adr_i[8]
*347 wbs_adr_i[9]
*348 wbs_cyc_i
*349 wbs_dat_i[0]
*350 wbs_dat_i[10]
*351 wbs_dat_i[11]
*352 wbs_dat_i[12]
*353 wbs_dat_i[13]
*354 wbs_dat_i[14]
*355 wbs_dat_i[15]
*356 wbs_dat_i[16]
*357 wbs_dat_i[17]
*358 wbs_dat_i[18]
*359 wbs_dat_i[19]
*360 wbs_dat_i[1]
*361 wbs_dat_i[20]
*362 wbs_dat_i[21]
*363 wbs_dat_i[22]
*364 wbs_dat_i[23]
*365 wbs_dat_i[24]
*366 wbs_dat_i[25]
*367 wbs_dat_i[26]
*368 wbs_dat_i[27]
*369 wbs_dat_i[28]
*370 wbs_dat_i[29]
*371 wbs_dat_i[2]
*372 wbs_dat_i[30]
*373 wbs_dat_i[31]
*374 wbs_dat_i[3]
*375 wbs_dat_i[4]
*376 wbs_dat_i[5]
*377 wbs_dat_i[6]
*378 wbs_dat_i[7]
*379 wbs_dat_i[8]
*380 wbs_dat_i[9]
*381 wbs_dat_o[0]
*382 wbs_dat_o[10]
*383 wbs_dat_o[11]
*384 wbs_dat_o[12]
*385 wbs_dat_o[13]
*386 wbs_dat_o[14]
*387 wbs_dat_o[15]
*388 wbs_dat_o[16]
*389 wbs_dat_o[17]
*390 wbs_dat_o[18]
*391 wbs_dat_o[19]
*392 wbs_dat_o[1]
*393 wbs_dat_o[20]
*394 wbs_dat_o[21]
*395 wbs_dat_o[22]
*396 wbs_dat_o[23]
*397 wbs_dat_o[24]
*398 wbs_dat_o[25]
*399 wbs_dat_o[26]
*400 wbs_dat_o[27]
*401 wbs_dat_o[28]
*402 wbs_dat_o[29]
*403 wbs_dat_o[2]
*404 wbs_dat_o[30]
*405 wbs_dat_o[31]
*406 wbs_dat_o[3]
*407 wbs_dat_o[4]
*408 wbs_dat_o[5]
*409 wbs_dat_o[6]
*410 wbs_dat_o[7]
*411 wbs_dat_o[8]
*412 wbs_dat_o[9]
*413 wbs_sel_i[0]
*414 wbs_sel_i[1]
*415 wbs_sel_i[2]
*416 wbs_sel_i[3]
*417 wbs_stb_i
*418 wbs_we_i
*419 mprj

*PORTS
io_in[0] I
io_in[10] I
io_in[11] I
io_in[12] I
io_in[13] I
io_in[14] I
io_in[15] I
io_in[16] I
io_in[17] I
io_in[18] I
io_in[19] I
io_in[1] I
io_in[20] I
io_in[21] I
io_in[22] I
io_in[23] I
io_in[24] I
io_in[25] I
io_in[26] I
io_in[27] I
io_in[28] I
io_in[29] I
io_in[2] I
io_in[30] I
io_in[31] I
io_in[32] I
io_in[33] I
io_in[34] I
io_in[35] I
io_in[36] I
io_in[37] I
io_in[3] I
io_in[4] I
io_in[5] I
io_in[6] I
io_in[7] I
io_in[8] I
io_in[9] I
io_oeb[0] O
io_oeb[10] O
io_oeb[11] O
io_oeb[12] O
io_oeb[13] O
io_oeb[14] O
io_oeb[15] O
io_oeb[16] O
io_oeb[17] O
io_oeb[18] O
io_oeb[19] O
io_oeb[1] O
io_oeb[20] O
io_oeb[21] O
io_oeb[22] O
io_oeb[23] O
io_oeb[24] O
io_oeb[25] O
io_oeb[26] O
io_oeb[27] O
io_oeb[28] O
io_oeb[29] O
io_oeb[2] O
io_oeb[30] O
io_oeb[31] O
io_oeb[32] O
io_oeb[33] O
io_oeb[34] O
io_oeb[35] O
io_oeb[36] O
io_oeb[37] O
io_oeb[3] O
io_oeb[4] O
io_oeb[5] O
io_oeb[6] O
io_oeb[7] O
io_oeb[8] O
io_oeb[9] O
io_out[0] O
io_out[10] O
io_out[11] O
io_out[12] O
io_out[13] O
io_out[14] O
io_out[15] O
io_out[16] O
io_out[17] O
io_out[18] O
io_out[19] O
io_out[1] O
io_out[20] O
io_out[21] O
io_out[22] O
io_out[23] O
io_out[24] O
io_out[25] O
io_out[26] O
io_out[27] O
io_out[28] O
io_out[29] O
io_out[2] O
io_out[30] O
io_out[31] O
io_out[32] O
io_out[33] O
io_out[34] O
io_out[35] O
io_out[36] O
io_out[37] O
io_out[3] O
io_out[4] O
io_out[5] O
io_out[6] O
io_out[7] O
io_out[8] O
io_out[9] O
la_data_in[0] I
la_data_in[10] I
la_data_in[11] I
la_data_in[12] I
la_data_in[13] I
la_data_in[14] I
la_data_in[15] I
la_data_in[16] I
la_data_in[17] I
la_data_in[18] I
la_data_in[19] I
la_data_in[1] I
la_data_in[20] I
la_data_in[21] I
la_data_in[22] I
la_data_in[23] I
la_data_in[24] I
la_data_in[25] I
la_data_in[26] I
la_data_in[27] I
la_data_in[28] I
la_data_in[29] I
la_data_in[2] I
la_data_in[30] I
la_data_in[31] I
la_data_in[32] I
la_data_in[33] I
la_data_in[34] I
la_data_in[35] I
la_data_in[36] I
la_data_in[37] I
la_data_in[38] I
la_data_in[39] I
la_data_in[3] I
la_data_in[40] I
la_data_in[41] I
la_data_in[42] I
la_data_in[43] I
la_data_in[44] I
la_data_in[45] I
la_data_in[46] I
la_data_in[47] I
la_data_in[48] I
la_data_in[49] I
la_data_in[4] I
la_data_in[50] I
la_data_in[51] I
la_data_in[52] I
la_data_in[53] I
la_data_in[54] I
la_data_in[55] I
la_data_in[56] I
la_data_in[57] I
la_data_in[58] I
la_data_in[59] I
la_data_in[5] I
la_data_in[60] I
la_data_in[61] I
la_data_in[62] I
la_data_in[63] I
la_data_in[6] I
la_data_in[7] I
la_data_in[8] I
la_data_in[9] I
la_data_out[0] O
la_data_out[10] O
la_data_out[11] O
la_data_out[12] O
la_data_out[13] O
la_data_out[14] O
la_data_out[15] O
la_data_out[16] O
la_data_out[17] O
la_data_out[18] O
la_data_out[19] O
la_data_out[1] O
la_data_out[20] O
la_data_out[21] O
la_data_out[22] O
la_data_out[23] O
la_data_out[24] O
la_data_out[25] O
la_data_out[26] O
la_data_out[27] O
la_data_out[28] O
la_data_out[29] O
la_data_out[2] O
la_data_out[30] O
la_data_out[31] O
la_data_out[32] O
la_data_out[33] O
la_data_out[34] O
la_data_out[35] O
la_data_out[36] O
la_data_out[37] O
la_data_out[38] O
la_data_out[39] O
la_data_out[3] O
la_data_out[40] O
la_data_out[41] O
la_data_out[42] O
la_data_out[43] O
la_data_out[44] O
la_data_out[45] O
la_data_out[46] O
la_data_out[47] O
la_data_out[48] O
la_data_out[49] O
la_data_out[4] O
la_data_out[50] O
la_data_out[51] O
la_data_out[52] O
la_data_out[53] O
la_data_out[54] O
la_data_out[55] O
la_data_out[56] O
la_data_out[57] O
la_data_out[58] O
la_data_out[59] O
la_data_out[5] O
la_data_out[60] O
la_data_out[61] O
la_data_out[62] O
la_data_out[63] O
la_data_out[6] O
la_data_out[7] O
la_data_out[8] O
la_data_out[9] O
la_oenb[0] I
la_oenb[10] I
la_oenb[11] I
la_oenb[12] I
la_oenb[13] I
la_oenb[14] I
la_oenb[15] I
la_oenb[16] I
la_oenb[17] I
la_oenb[18] I
la_oenb[19] I
la_oenb[1] I
la_oenb[20] I
la_oenb[21] I
la_oenb[22] I
la_oenb[23] I
la_oenb[24] I
la_oenb[25] I
la_oenb[26] I
la_oenb[27] I
la_oenb[28] I
la_oenb[29] I
la_oenb[2] I
la_oenb[30] I
la_oenb[31] I
la_oenb[32] I
la_oenb[33] I
la_oenb[34] I
la_oenb[35] I
la_oenb[36] I
la_oenb[37] I
la_oenb[38] I
la_oenb[39] I
la_oenb[3] I
la_oenb[40] I
la_oenb[41] I
la_oenb[42] I
la_oenb[43] I
la_oenb[44] I
la_oenb[45] I
la_oenb[46] I
la_oenb[47] I
la_oenb[48] I
la_oenb[49] I
la_oenb[4] I
la_oenb[50] I
la_oenb[51] I
la_oenb[52] I
la_oenb[53] I
la_oenb[54] I
la_oenb[55] I
la_oenb[56] I
la_oenb[57] I
la_oenb[58] I
la_oenb[59] I
la_oenb[5] I
la_oenb[60] I
la_oenb[61] I
la_oenb[62] I
la_oenb[63] I
la_oenb[6] I
la_oenb[7] I
la_oenb[8] I
la_oenb[9] I
user_clock2 I
user_irq[0] O
user_irq[1] O
user_irq[2] O
wb_clk_i I
wb_rst_i I
wbs_ack_o O
wbs_adr_i[0] I
wbs_adr_i[10] I
wbs_adr_i[11] I
wbs_adr_i[12] I
wbs_adr_i[13] I
wbs_adr_i[14] I
wbs_adr_i[15] I
wbs_adr_i[16] I
wbs_adr_i[17] I
wbs_adr_i[18] I
wbs_adr_i[19] I
wbs_adr_i[1] I
wbs_adr_i[20] I
wbs_adr_i[21] I
wbs_adr_i[22] I
wbs_adr_i[23] I
wbs_adr_i[24] I
wbs_adr_i[25] I
wbs_adr_i[26] I
wbs_adr_i[27] I
wbs_adr_i[28] I
wbs_adr_i[29] I
wbs_adr_i[2] I
wbs_adr_i[30] I
wbs_adr_i[31] I
wbs_adr_i[3] I
wbs_adr_i[4] I
wbs_adr_i[5] I
wbs_adr_i[6] I
wbs_adr_i[7] I
wbs_adr_i[8] I
wbs_adr_i[9] I
wbs_cyc_i I
wbs_dat_i[0] I
wbs_dat_i[10] I
wbs_dat_i[11] I
wbs_dat_i[12] I
wbs_dat_i[13] I
wbs_dat_i[14] I
wbs_dat_i[15] I
wbs_dat_i[16] I
wbs_dat_i[17] I
wbs_dat_i[18] I
wbs_dat_i[19] I
wbs_dat_i[1] I
wbs_dat_i[20] I
wbs_dat_i[21] I
wbs_dat_i[22] I
wbs_dat_i[23] I
wbs_dat_i[24] I
wbs_dat_i[25] I
wbs_dat_i[26] I
wbs_dat_i[27] I
wbs_dat_i[28] I
wbs_dat_i[29] I
wbs_dat_i[2] I
wbs_dat_i[30] I
wbs_dat_i[31] I
wbs_dat_i[3] I
wbs_dat_i[4] I
wbs_dat_i[5] I
wbs_dat_i[6] I
wbs_dat_i[7] I
wbs_dat_i[8] I
wbs_dat_i[9] I
wbs_dat_o[0] O
wbs_dat_o[10] O
wbs_dat_o[11] O
wbs_dat_o[12] O
wbs_dat_o[13] O
wbs_dat_o[14] O
wbs_dat_o[15] O
wbs_dat_o[16] O
wbs_dat_o[17] O
wbs_dat_o[18] O
wbs_dat_o[19] O
wbs_dat_o[1] O
wbs_dat_o[20] O
wbs_dat_o[21] O
wbs_dat_o[22] O
wbs_dat_o[23] O
wbs_dat_o[24] O
wbs_dat_o[25] O
wbs_dat_o[26] O
wbs_dat_o[27] O
wbs_dat_o[28] O
wbs_dat_o[29] O
wbs_dat_o[2] O
wbs_dat_o[30] O
wbs_dat_o[31] O
wbs_dat_o[3] O
wbs_dat_o[4] O
wbs_dat_o[5] O
wbs_dat_o[6] O
wbs_dat_o[7] O
wbs_dat_o[8] O
wbs_dat_o[9] O
wbs_sel_i[0] I
wbs_sel_i[1] I
wbs_sel_i[2] I
wbs_sel_i[3] I
wbs_stb_i I
wbs_we_i I

*D_NET *3 0.316626
*CONN
*P io_in[11] I
*I *419:io_in[0] I *D user_proj_example
*CAP
1 io_in[11] 0.0011292
2 *419:io_in[0] 0.00371873
3 *3:9 0.0596073
4 *3:7 0.0570178
5 *3:9 *6:9 0.195153
*RES
1 io_in[11] *3:7 12.825 
2 *3:7 *3:9 693.81 
3 *3:9 *419:io_in[0] 34.425 
*END

*D_NET *4 0.177999
*CONN
*P io_in[12] I
*I *419:io_in[1] I *D user_proj_example
*CAP
1 io_in[12] 0.00354755
2 *419:io_in[1] 0.00133443
3 *4:9 0.0854519
4 *4:7 0.0876651
*RES
1 io_in[12] *4:7 31.725 
2 *4:7 *4:9 687.33 
3 *4:9 *419:io_in[1] 15.525 
*END

*D_NET *5 0.176366
*CONN
*P io_in[13] I
*I *419:io_in[2] I *D user_proj_example
*CAP
1 io_in[13] 0.00320695
2 *419:io_in[2] 0.00169194
3 *5:9 0.0849762
4 *5:7 0.0864912
*RES
1 io_in[13] *5:7 29.025 
2 *5:7 *5:9 680.85 
3 *5:9 *419:io_in[2] 18.225 
*END

*D_NET *6 0.312535
*CONN
*P io_in[14] I
*I *419:io_in[3] I *D user_proj_example
*CAP
1 io_in[14] 0.00131687
2 *419:io_in[3] 0.00384181
3 *6:9 0.0573741
4 *6:7 0.0548491
5 *3:9 *6:9 0.195153
*RES
1 io_in[14] *6:7 12.645 
2 *6:7 *6:9 674.37 
3 *6:9 *419:io_in[3] 34.605 
*END

*D_NET *7 0.175706
*CONN
*P io_in[15] I
*I *419:io_in[4] I *D user_proj_example
*CAP
1 io_in[15] 0.00111873
2 *419:io_in[4] 0.00242411
3 *7:13 0.0867342
4 *7:11 0.0854288
*RES
1 io_in[15] *7:11 17.595 
2 *7:11 *7:13 650.97 
3 *7:13 *419:io_in[4] 23.625 
*END

*D_NET *8 0.22219
*CONN
*P io_in[16] I
*I *419:io_in[5] I *D user_proj_example
*CAP
1 io_in[16] 0.0010524
2 *419:io_in[5] 5.6573e-05
3 *8:13 0.0750886
4 *8:11 0.0750321
5 *8:9 0.0054226
6 *8:7 0.00647499
7 *8:9 *9:9 0.0339827
8 *8:13 *97:6 0.0250797
*RES
1 io_in[16] *8:7 12.645 
2 *8:7 *8:9 84.69 
3 *8:9 *8:11 4.5 
4 *8:11 *8:13 579.33 
5 *8:13 *419:io_in[5] 4.905 
*END

*D_NET *9 0.206527
*CONN
*P io_in[17] I
*I *419:io_in[6] I *D user_proj_example
*CAP
1 io_in[17] 0.00107539
2 *419:io_in[6] 0.000212486
3 *9:13 0.0662381
4 *9:11 0.0660257
5 *9:9 0.0189586
6 *9:7 0.020034
7 *8:9 *9:9 0.0339827
*RES
1 io_in[17] *9:7 12.825 
2 *9:7 *9:9 193.59 
3 *9:9 *9:11 4.5 
4 *9:11 *9:13 509.31 
5 *9:13 *419:io_in[6] 6.165 
*END

*D_NET *10 0.174962
*CONN
*P io_in[18] I
*I *419:io_in[7] I *D user_proj_example
*CAP
1 io_in[18] 0.00113241
2 *419:io_in[7] 2.18166e-05
3 *10:15 0.0327249
4 *10:13 0.0327031
5 *10:11 0.0535845
6 *10:9 0.0547169
7 *419:io_in[7] *97:6 7.82602e-05
*RES
1 io_in[18] *10:9 17.865 
2 *10:9 *10:11 438.445 
3 *10:11 *10:13 4.5 
4 *10:13 *10:15 126.136 
5 *10:15 *419:io_in[7] 9.21536 
*END

*D_NET *11 0.209601
*CONN
*P io_in[19] I
*I *419:io_in[8] I *D user_proj_example
*CAP
1 io_in[19] 0.00131019
2 *419:io_in[8] 0.000228977
3 *11:17 0.0544694
4 *11:15 0.0542405
5 *11:13 0.049021
6 *11:11 0.0503312
*RES
1 io_in[19] *11:11 19.035 
2 *11:11 *11:13 400.548 
3 *11:13 *11:15 4.5 
4 *11:15 *11:17 209.067 
5 *11:17 *419:io_in[8] 10.7068 
*END

*D_NET *13 0.217574
*CONN
*P io_in[20] I
*I *419:io_in[9] I *D user_proj_example
*CAP
1 io_in[20] 0.00113241
2 *419:io_in[9] 0.000228977
3 *13:15 0.0427705
4 *13:13 0.0425415
5 *13:11 0.064884
6 *13:9 0.0660164
*RES
1 io_in[20] *13:9 17.865 
2 *13:9 *13:11 530.148 
3 *13:11 *13:13 4.5 
4 *13:13 *13:15 164.395 
5 *13:15 *419:io_in[9] 10.7068 
*END

*D_NET *14 0.468257
*CONN
*P io_in[21] I
*I *419:io_in[10] I *D user_proj_example
*CAP
1 io_in[21] 0.00107539
2 *419:io_in[10] 0.00013033
3 *14:13 0.043147
4 *14:11 0.0430167
5 *14:9 0.0243515
6 *14:7 0.0254269
7 *14:9 *15:9 0.0709191
8 *14:13 *15:13 0.26019
*RES
1 io_in[21] *14:7 12.825 
2 *14:7 *14:9 282.87 
3 *14:9 *14:11 4.5 
4 *14:11 *14:13 661.59 
5 *14:13 *419:io_in[10] 5.265 
*END

*D_NET *15 0.492053
*CONN
*P io_in[22] I
*I *419:io_in[11] I *D user_proj_example
*CAP
1 io_in[22] 0.0010524
2 *419:io_in[11] 9.15802e-05
3 *15:13 0.0171501
4 *15:11 0.0170585
5 *15:9 0.00687579
6 *15:7 0.00792819
7 *15:9 *16:9 0.0279265
8 *15:13 *16:13 0.0828606
9 *14:9 *15:9 0.0709191
10 *14:13 *15:13 0.26019
*RES
1 io_in[22] *15:7 12.645 
2 *15:7 *15:9 176.31 
3 *15:9 *15:11 4.5 
4 *15:11 *15:13 704.97 
5 *15:13 *419:io_in[11] 5.085 
*END

*D_NET *16 0.252467
*CONN
*P io_in[23] I
*I *419:io_in[12] I *D user_proj_example
*CAP
1 io_in[23] 0.0010294
2 *419:io_in[12] 9.97316e-05
3 *16:13 0.0654555
4 *16:11 0.0653557
5 *16:9 0.00435488
6 *16:7 0.00538428
7 *15:9 *16:9 0.0279265
8 *15:13 *16:13 0.0828606
*RES
1 io_in[23] *16:7 12.465 
2 *16:7 *16:9 69.39 
3 *16:9 *16:11 4.5 
4 *16:11 *16:13 747.63 
5 *16:13 *419:io_in[12] 5.265 
*END

*D_NET *17 0.38735
*CONN
*P io_in[24] I
*I *419:io_in[13] I *D user_proj_example
*CAP
1 io_in[24] 0.000751787
2 *419:io_in[13] 0.0018926
3 *17:47 0.00479978
4 *17:35 0.00543633
5 *17:27 0.00507957
6 *17:17 0.00626295
7 *17:15 0.00567777
8 *17:9 0.0341853
9 *17:7 0.0329718
10 *17:9 *18:9 0.203127
11 *17:9 *59:24 0.00423458
12 *17:9 *59:32 0.0157157
13 *17:9 *60:34 0.00168671
14 *17:15 *18:9 0.00118982
15 *17:15 *18:15 0.00795642
16 *17:15 *18:17 0.00116716
17 *17:15 *60:34 0.00154141
18 *17:17 io_oeb[33] 4.13094e-05
19 *17:17 io_out[33] 0.000555176
20 *17:17 *18:17 0.010538
21 *17:27 io_out[34] 0.000815223
22 *17:27 *18:17 0.0108171
23 *17:27 *59:24 0.00168411
24 *17:35 io_oeb[34] 6.39754e-05
25 *17:35 *18:17 0.0111846
26 *17:35 *59:24 0.00168411
27 *17:47 io_out[35] 4.13094e-05
28 *17:47 *18:17 0.013974
29 *17:47 *59:24 0.00227516
*RES
1 io_in[24] *17:7 10.665 
2 *17:7 *17:9 571.14 
3 *17:9 *17:15 38.2725 
4 *17:15 *17:17 57.1275 
5 *17:17 *17:27 38.79 
6 *17:27 *17:35 38.52 
7 *17:35 *17:47 49.86 
8 *17:47 *419:io_in[13] 12.645 
*END

*D_NET *18 0.582966
*CONN
*P io_in[25] I
*I *419:io_in[14] I *D user_proj_example
*CAP
1 io_in[25] 0.000790293
2 *419:io_in[14] 0.00183552
3 *18:17 0.00540656
4 *18:15 0.00387254
5 *18:9 0.00587215
6 *18:7 0.00636093
7 *18:9 *19:9 0.179355
8 *18:9 *59:24 0.000627786
9 *18:9 *98:20 0.000582959
10 *18:15 *19:9 1.46147e-05
11 *18:15 *19:15 0.00359577
12 *18:15 *19:17 6.67532e-05
13 *18:17 io_oeb[33] 3.70577e-05
14 *18:17 io_oeb[34] 5.69441e-05
15 *18:17 io_oeb[35] 0.00016719
16 *18:17 io_out[33] 0.00054544
17 *18:17 io_out[34] 0.000805487
18 *18:17 io_out[35] 3.70577e-05
19 *18:17 *19:17 0.0924566
20 *18:17 *59:24 0.0112608
21 *18:17 *98:20 0.0092647
22 *17:9 *18:9 0.203127
23 *17:15 *18:9 0.00118982
24 *17:15 *18:15 0.00795642
25 *17:15 *18:17 0.00116716
26 *17:17 *18:17 0.010538
27 *17:27 *18:17 0.0108171
28 *17:35 *18:17 0.0111846
29 *17:47 *18:17 0.013974
*RES
1 io_in[25] *18:7 10.845 
2 *18:7 *18:9 512.213 
3 *18:9 *18:15 20.6614 
4 *18:15 *18:17 229.156 
5 *18:17 *419:io_in[14] 16.965 
*END

*D_NET *19 0.484718
*CONN
*P io_in[26] I
*I *419:io_in[15] I *D user_proj_example
*CAP
1 io_in[26] 0.000828799
2 *419:io_in[15] 0.00175622
3 *19:17 0.0118759
4 *19:15 0.010468
5 *19:9 0.0191903
6 *19:7 0.0196708
7 *19:9 *100:21 0.0603635
8 *19:15 io_oeb[32] 0.00236551
9 *19:15 *59:24 0.00115367
10 *19:15 *98:20 0.000724646
11 *19:15 *100:21 0.00244241
12 *19:17 *59:24 0.00272363
13 *19:17 *60:24 9.95809e-05
14 *19:17 *60:26 0.00928697
15 *19:17 *98:18 0.000522187
16 *19:17 *98:20 0.0008006
17 *19:17 *100:21 0.064956
18 *18:9 *19:9 0.179355
19 *18:15 *19:9 1.46147e-05
20 *18:15 *19:15 0.00359577
21 *18:15 *19:17 6.67532e-05
22 *18:17 *19:17 0.0924566
*RES
1 io_in[26] *19:7 11.025 
2 *19:7 *19:9 444.462 
3 *19:9 *19:15 19.4336 
4 *19:15 *19:17 272.935 
5 *19:17 *419:io_in[15] 16.785 
*END

*D_NET *20 0.291645
*CONN
*P io_in[27] I
*I *419:io_in[16] I *D user_proj_example
*CAP
1 io_in[27] 0.00187165
2 *419:io_in[16] 0.00101663
3 *20:9 0.062586
4 *20:7 0.063441
5 *20:9 *68:9 0.152576
6 *20:9 *69:9 0.0101531
*RES
1 io_in[27] *20:7 16.065 
2 *20:7 *20:9 711.27 
3 *20:9 *419:io_in[16] 11.745 
*END

*D_NET *59 0.520534
*CONN
*P io_oeb[28] O
*I *419:io_oeb[0] O *D user_proj_example
*CAP
1 io_oeb[28] 0.00064389
2 *419:io_oeb[0] 0.00602001
3 *59:32 0.00937647
4 *59:30 0.00888188
5 *59:24 0.0291136
6 *59:22 0.0291418
7 *59:14 0.113245
8 *59:12 0.119088
9 *59:12 *97:6 6.54565e-05
10 *59:24 *98:20 0.103965
11 *59:30 io_oeb[31] 5.48097e-05
12 *59:32 *60:34 0.0552475
13 *59:32 *98:28 0.0043307
14 *17:9 *59:24 0.00423458
15 *17:9 *59:32 0.0157157
16 *17:27 *59:24 0.00168411
17 *17:35 *59:24 0.00168411
18 *17:47 *59:24 0.00227516
19 *18:9 *59:24 0.000627786
20 *18:17 *59:24 0.0112608
21 *19:15 *59:24 0.00115367
22 *19:17 *59:24 0.00272363
*RES
1 *419:io_oeb[0] *59:12 24.4778 
2 *59:12 *59:14 371.76 
3 *59:14 *59:22 14.8982 
4 *59:22 *59:24 353.97 
5 *59:24 *59:30 9.99 
6 *59:30 *59:32 204.93 
7 *59:32 io_oeb[28] 9.765 
*END

*D_NET *60 0.467768
*CONN
*P io_oeb[29] O
*I *419:io_oeb[1] O *D user_proj_example
*CAP
1 io_oeb[29] 0.000639238
2 *419:io_oeb[1] 0.00410653
3 *60:34 0.0049962
4 *60:32 0.00464311
5 *60:26 0.0145422
6 *60:24 0.0145427
7 *60:14 0.0966833
8 *60:12 0.100503
9 *60:12 *97:6 0.000104528
10 *60:26 io_oeb[32] 0.000259523
11 *60:26 *98:20 0.0860193
12 *60:26 *100:21 0.000126488
13 *60:34 *98:28 0.0727395
14 *17:9 *60:34 0.00168671
15 *17:15 *60:34 0.00154141
16 *19:17 *60:24 9.95809e-05
17 *19:17 *60:26 0.00928697
18 *59:32 *60:34 0.0552475
*RES
1 *419:io_oeb[1] *60:12 24.5742 
2 *60:12 *60:14 371.225 
3 *60:14 *60:24 15.7918 
4 *60:24 *60:26 218.79 
5 *60:26 *60:32 10.53 
6 *60:32 *60:34 201.87 
7 *60:34 io_oeb[29] 9.585 
*END

*D_NET *62 0.458449
*CONN
*P io_oeb[30] O
*I *419:io_oeb[2] O *D user_proj_example
*CAP
1 io_oeb[30] 0.000956576
2 *419:io_oeb[2] 0.00433709
3 *62:21 0.00725339
4 *62:19 0.00629681
5 *62:17 0.122057
6 *62:15 0.126395
7 *62:15 *97:6 5.85664e-05
8 *62:21 *100:21 0.113894
9 *62:21 *101:17 0.0771999
*RES
1 *419:io_oeb[2] *62:15 25.8589 
2 *62:15 *62:17 371.455 
3 *62:17 *62:19 4.5 
4 *62:19 *62:21 282.288 
5 *62:21 io_oeb[30] 11.385 
*END

*D_NET *63 0.362327
*CONN
*P io_oeb[31] O
*I *419:io_oeb[3] O *D user_proj_example
*CAP
1 io_oeb[31] 0.00119104
2 *419:io_oeb[3] 0.00698565
3 *63:21 0.00744527
4 *63:19 0.00625423
5 *63:17 0.126811
6 *63:15 0.133797
7 *63:15 *97:6 0.000260678
8 *63:21 *101:17 0.0582082
9 *63:21 *102:19 0.0213185
10 *59:30 io_oeb[31] 5.48097e-05
*RES
1 *419:io_oeb[3] *63:15 25.9992 
2 *63:15 *63:17 371.302 
3 *63:17 *63:19 4.5 
4 *63:19 *63:21 144.241 
5 *63:21 io_oeb[31] 11.745 
*END

*D_NET *64 0.209165
*CONN
*P io_oeb[32] O
*I *419:io_oeb[4] O *D user_proj_example
*CAP
1 io_oeb[32] 0.00109658
2 *419:io_oeb[4] 0.00431889
3 *64:17 0.0977275
4 *64:15 0.10095
5 io_oeb[32] *100:21 0.00235579
6 *64:15 *97:6 9.13939e-05
7 *19:15 io_oeb[32] 0.00236551
8 *60:26 io_oeb[32] 0.000259523
*RES
1 *419:io_oeb[4] *64:15 25.7625 
2 *64:15 *64:17 371.607 
3 *64:17 io_oeb[32] 21.4296 
*END

*D_NET *65 0.302014
*CONN
*P io_oeb[33] O
*I *419:io_oeb[5] O *D user_proj_example
*CAP
1 io_oeb[33] 0.000782109
2 *419:io_oeb[5] 0.000673091
3 *65:13 0.102222
4 *65:11 0.101439
5 *65:9 0.000475914
6 *65:7 0.001149
7 *65:9 *67:9 0.00904941
8 *65:9 *103:9 0.0334438
9 *65:9 *104:9 0.0527016
10 *17:17 io_oeb[33] 4.13094e-05
11 *18:17 io_oeb[33] 3.70577e-05
*RES
1 *419:io_oeb[5] *65:7 9.585 
2 *65:7 *65:9 130.561 
3 *65:9 *65:11 4.5 
4 *65:11 *65:13 389.285 
5 *65:13 io_oeb[33] 15.2839 
*END

*D_NET *66 0.645955
*CONN
*P io_oeb[34] O
*I *419:io_oeb[6] O *D user_proj_example
*CAP
1 io_oeb[34] 0.000785413
2 *419:io_oeb[6] 0.000613234
3 *66:13 0.219489
4 *66:11 0.218703
5 *66:9 0.00186724
6 *66:7 0.00248048
7 *66:9 *67:9 0.00448292
8 *66:9 *104:9 0.0889949
9 *66:9 *105:9 0.108418
10 *17:35 io_oeb[34] 6.39754e-05
11 *18:17 io_oeb[34] 5.69441e-05
*RES
1 *419:io_oeb[6] *66:7 9.225 
2 *66:7 *66:9 268.743 
3 *66:9 *66:11 4.5 
4 *66:11 *66:13 389.133 
5 *66:13 io_oeb[34] 15.3418 
*END

*D_NET *67 0.689907
*CONN
*P io_oeb[35] O
*I *419:io_oeb[7] O *D user_proj_example
*CAP
1 io_oeb[35] 0.000817899
2 *419:io_oeb[7] 0.000852013
3 *67:13 0.27833
4 *67:11 0.277512
5 *67:9 0.03277
6 *67:7 0.033622
7 *67:9 *103:9 0.0334438
8 *67:9 *104:9 0.0117404
9 *67:9 *105:9 0.00711874
10 *18:17 io_oeb[35] 0.00016719
11 *65:9 *67:9 0.00904941
12 *66:9 *67:9 0.00448292
*RES
1 *419:io_oeb[7] *67:7 9.945 
2 *67:7 *67:9 406.347 
3 *67:9 *67:11 4.5 
4 *67:11 *67:13 389.438 
5 *67:13 io_oeb[35] 15.6182 
*END

*D_NET *68 0.275763
*CONN
*P io_oeb[36] O
*I *419:io_oeb[8] O *D user_proj_example
*CAP
1 io_oeb[36] 0.00157328
2 *419:io_oeb[8] 0.00103798
3 *68:9 0.0104333
4 *68:7 0.00989796
5 *68:9 *69:9 0.100245
6 *20:9 *68:9 0.152576
*RES
1 *419:io_oeb[8] *68:7 11.565 
2 *68:7 *68:9 378.27 
3 *68:9 io_oeb[36] 16.245 
*END

*D_NET *69 0.157694
*CONN
*P io_oeb[37] O
*I *419:io_oeb[9] O *D user_proj_example
*CAP
1 io_oeb[37] 0.00154387
2 *419:io_oeb[9] 0.00103333
3 *69:9 0.0226149
4 *69:7 0.0221043
5 *20:9 *69:9 0.0101531
6 *68:9 *69:9 0.100245
*RES
1 *419:io_oeb[9] *69:7 11.385 
2 *69:7 *69:9 316.71 
3 *69:9 io_oeb[37] 16.425 
*END

*D_NET *97 0.40425
*CONN
*P io_out[28] O
*I *419:io_out[0] O *D user_proj_example
*CAP
1 io_out[28] 0.114404
2 *419:io_out[0] 0
3 *97:8 0.114404
4 *97:6 0.0746603
5 *97:4 0.0746603
6 *97:6 *98:8 8.08952e-05
7 *97:6 *100:15 7.30067e-05
8 *97:6 *101:11 0.000112408
9 *97:6 *102:13 0.00011689
10 *419:io_in[7] *97:6 7.82602e-05
11 *8:13 *97:6 0.0250797
12 *59:12 *97:6 6.54565e-05
13 *60:12 *97:6 0.000104528
14 *62:15 *97:6 5.85664e-05
15 *63:15 *97:6 0.000260678
16 *64:15 *97:6 9.13939e-05
*RES
1 *419:io_out[0] *97:4 4.5 
2 *97:4 *97:6 606.87 
3 *97:6 *97:8 4.5 
4 *97:8 io_out[28] 917.685 
*END

*D_NET *98 0.51389
*CONN
*P io_out[29] O
*I *419:io_out[1] O *D user_proj_example
*CAP
1 io_out[29] 0.000600732
2 *419:io_out[1] 2.21811e-05
3 *98:28 0.0133774
4 *98:26 0.0130292
5 *98:20 0.0034034
6 *98:18 0.00326014
7 *98:10 0.100627
8 *98:8 0.10054
9 *98:26 io_out[32] 0
10 *18:9 *98:20 0.000582959
11 *18:17 *98:20 0.0092647
12 *19:15 *98:20 0.000724646
13 *19:17 *98:18 0.000522187
14 *19:17 *98:20 0.0008006
15 *59:24 *98:20 0.103965
16 *59:32 *98:28 0.0043307
17 *60:26 *98:20 0.0860193
18 *60:34 *98:28 0.0727395
19 *97:6 *98:8 8.08952e-05
*RES
1 *419:io_out[1] *98:8 9.22179 
2 *98:8 *98:10 386.613 
3 *98:10 *98:18 14.8018 
4 *98:18 *98:20 264.69 
5 *98:20 *98:26 10.53 
6 *98:26 *98:28 202.95 
7 *98:28 io_out[29] 9.405 
*END

*D_NET *100 0.455079
*CONN
*P io_out[30] O
*I *419:io_out[2] O *D user_proj_example
*CAP
1 io_out[30] 0.00091807
2 *419:io_out[2] 0.00422477
3 *100:21 0.00472702
4 *100:19 0.00380895
5 *100:17 0.0964818
6 *100:15 0.100707
7 io_oeb[32] *100:21 0.00235579
8 *19:9 *100:21 0.0603635
9 *19:15 *100:21 0.00244241
10 *19:17 *100:21 0.064956
11 *60:26 *100:21 0.000126488
12 *62:21 *100:21 0.113894
13 *97:6 *100:15 7.30067e-05
*RES
1 *419:io_out[2] *100:15 25.292 
2 *100:15 *100:17 371.531 
3 *100:17 *100:19 4.5 
4 *100:19 *100:21 329.268 
5 *100:21 io_out[30] 11.205 
*END

*D_NET *101 0.3456
*CONN
*P io_out[31] O
*I *419:io_out[3] O *D user_proj_example
*CAP
1 io_out[31] 0.000995083
2 *419:io_out[3] 0.000126734
3 *101:17 0.00437292
4 *101:15 0.00337783
5 *101:13 0.10054
6 *101:11 0.100667
7 *62:21 *101:17 0.0771999
8 *63:21 *101:17 0.0582082
9 *97:6 *101:11 0.000112408
*RES
1 *419:io_out[3] *101:11 10.0639 
2 *101:11 *101:13 386.46 
3 *101:13 *101:15 4.5 
4 *101:15 *101:17 191.221 
5 *101:17 io_out[31] 11.565 
*END

*D_NET *102 0.337617
*CONN
*P io_out[32] O
*I *419:io_out[4] O *D user_proj_example
*CAP
1 io_out[32] 0.00105674
2 *419:io_out[4] 0.000156885
3 *102:19 0.0048341
4 *102:17 0.00377736
5 *102:15 0.1531
6 *102:13 0.153257
7 *63:21 *102:19 0.0213185
8 *97:6 *102:13 0.00011689
9 *98:26 io_out[32] 0
*RES
1 *419:io_out[4] *102:13 10.0538 
2 *102:13 *102:15 386.307 
3 *102:15 *102:17 4.5 
4 *102:17 *102:19 52.8846 
5 *102:19 io_out[32] 11.925 
*END

*D_NET *103 0.274817
*CONN
*P io_out[33] O
*I *419:io_out[5] O *D user_proj_example
*CAP
1 io_out[33] 0.000839474
2 *419:io_out[5] 0.000855531
3 *103:13 0.10233
4 *103:11 0.10149
5 *103:9 0.000229039
6 *103:7 0.00108457
7 *17:17 io_out[33] 0.000555176
8 *18:17 io_out[33] 0.00054544
9 *65:9 *103:9 0.0334438
10 *67:9 *103:9 0.0334438
*RES
1 *419:io_out[5] *103:7 9.765 
2 *103:7 *103:9 82.8611 
3 *103:9 *103:11 4.5 
4 *103:11 *103:13 389.362 
5 *103:13 io_out[33] 16.5439 
*END

*D_NET *104 0.363881
*CONN
*P io_out[34] O
*I *419:io_out[6] O *D user_proj_example
*CAP
1 io_out[34] 0.000868209
2 *419:io_out[6] 0.00065174
3 *104:13 0.10221
4 *104:11 0.101342
5 *104:9 0.00154973
6 *104:7 0.00220147
7 *17:27 io_out[34] 0.000815223
8 *18:17 io_out[34] 0.000805487