*SPEF "ieee 1481-1999"
*DESIGN "user_project_wrapper"
*DATE "11:11:11 Fri 11 11, 1111"
*VENDOR "OpenRCX"
*PROGRAM "Parallel Extraction"
*VERSION "1.0"
*DESIGN_FLOW "NAME_SCOPE LOCAL" "PIN_CAP NONE"
*DIVIDER /
*DELIMITER :
*BUS_DELIMITER []
*T_UNIT 1 NS
*C_UNIT 1 PF
*R_UNIT 1 OHM
*L_UNIT 1 HENRY

*NAME_MAP
*1 io_in[0]
*2 io_in[10]
*3 io_in[11]
*4 io_in[12]
*5 io_in[13]
*6 io_in[14]
*7 io_in[15]
*8 io_in[16]
*9 io_in[17]
*10 io_in[18]
*11 io_in[19]
*12 io_in[1]
*13 io_in[20]
*14 io_in[21]
*15 io_in[22]
*16 io_in[23]
*17 io_in[24]
*18 io_in[25]
*19 io_in[26]
*20 io_in[27]
*21 io_in[28]
*22 io_in[29]
*23 io_in[2]
*24 io_in[30]
*25 io_in[31]
*26 io_in[32]
*27 io_in[33]
*28 io_in[34]
*29 io_in[35]
*30 io_in[36]
*31 io_in[37]
*32 io_in[3]
*33 io_in[4]
*34 io_in[5]
*35 io_in[6]
*36 io_in[7]
*37 io_in[8]
*38 io_in[9]
*39 io_oeb[0]
*40 io_oeb[10]
*41 io_oeb[11]
*42 io_oeb[12]
*43 io_oeb[13]
*44 io_oeb[14]
*45 io_oeb[15]
*46 io_oeb[16]
*47 io_oeb[17]
*48 io_oeb[18]
*49 io_oeb[19]
*50 io_oeb[1]
*51 io_oeb[20]
*52 io_oeb[21]
*53 io_oeb[22]
*54 io_oeb[23]
*55 io_oeb[24]
*56 io_oeb[25]
*57 io_oeb[26]
*58 io_oeb[27]
*59 io_oeb[28]
*60 io_oeb[29]
*61 io_oeb[2]
*62 io_oeb[30]
*63 io_oeb[31]
*64 io_oeb[32]
*65 io_oeb[33]
*66 io_oeb[34]
*67 io_oeb[35]
*68 io_oeb[36]
*69 io_oeb[37]
*70 io_oeb[3]
*71 io_oeb[4]
*72 io_oeb[5]
*73 io_oeb[6]
*74 io_oeb[7]
*75 io_oeb[8]
*76 io_oeb[9]
*77 io_out[0]
*78 io_out[10]
*79 io_out[11]
*80 io_out[12]
*81 io_out[13]
*82 io_out[14]
*83 io_out[15]
*84 io_out[16]
*85 io_out[17]
*86 io_out[18]
*87 io_out[19]
*88 io_out[1]
*89 io_out[20]
*90 io_out[21]
*91 io_out[22]
*92 io_out[23]
*93 io_out[24]
*94 io_out[25]
*95 io_out[26]
*96 io_out[27]
*97 io_out[28]
*98 io_out[29]
*99 io_out[2]
*100 io_out[30]
*101 io_out[31]
*102 io_out[32]
*103 io_out[33]
*104 io_out[34]
*105 io_out[35]
*106 io_out[36]
*107 io_out[37]
*108 io_out[3]
*109 io_out[4]
*110 io_out[5]
*111 io_out[6]
*112 io_out[7]
*113 io_out[8]
*114 io_out[9]
*115 la_data_in[0]
*116 la_data_in[10]
*117 la_data_in[11]
*118 la_data_in[12]
*119 la_data_in[13]
*120 la_data_in[14]
*121 la_data_in[15]
*122 la_data_in[16]
*123 la_data_in[17]
*124 la_data_in[18]
*125 la_data_in[19]
*126 la_data_in[1]
*127 la_data_in[20]
*128 la_data_in[21]
*129 la_data_in[22]
*130 la_data_in[23]
*131 la_data_in[24]
*132 la_data_in[25]
*133 la_data_in[26]
*134 la_data_in[27]
*135 la_data_in[28]
*136 la_data_in[29]
*137 la_data_in[2]
*138 la_data_in[30]
*139 la_data_in[31]
*140 la_data_in[32]
*141 la_data_in[33]
*142 la_data_in[34]
*143 la_data_in[35]
*144 la_data_in[36]
*145 la_data_in[37]
*146 la_data_in[38]
*147 la_data_in[39]
*148 la_data_in[3]
*149 la_data_in[40]
*150 la_data_in[41]
*151 la_data_in[42]
*152 la_data_in[43]
*153 la_data_in[44]
*154 la_data_in[45]
*155 la_data_in[46]
*156 la_data_in[47]
*157 la_data_in[48]
*158 la_data_in[49]
*159 la_data_in[4]
*160 la_data_in[50]
*161 la_data_in[51]
*162 la_data_in[52]
*163 la_data_in[53]
*164 la_data_in[54]
*165 la_data_in[55]
*166 la_data_in[56]
*167 la_data_in[57]
*168 la_data_in[58]
*169 la_data_in[59]
*170 la_data_in[5]
*171 la_data_in[60]
*172 la_data_in[61]
*173 la_data_in[62]
*174 la_data_in[63]
*175 la_data_in[6]
*176 la_data_in[7]
*177 la_data_in[8]
*178 la_data_in[9]
*179 la_data_out[0]
*180 la_data_out[10]
*181 la_data_out[11]
*182 la_data_out[12]
*183 la_data_out[13]
*184 la_data_out[14]
*185 la_data_out[15]
*186 la_data_out[16]
*187 la_data_out[17]
*188 la_data_out[18]
*189 la_data_out[19]
*190 la_data_out[1]
*191 la_data_out[20]
*192 la_data_out[21]
*193 la_data_out[22]
*194 la_data_out[23]
*195 la_data_out[24]
*196 la_data_out[25]
*197 la_data_out[26]
*198 la_data_out[27]
*199 la_data_out[28]
*200 la_data_out[29]
*201 la_data_out[2]
*202 la_data_out[30]
*203 la_data_out[31]
*204 la_data_out[32]
*205 la_data_out[33]
*206 la_data_out[34]
*207 la_data_out[35]
*208 la_data_out[36]
*209 la_data_out[37]
*210 la_data_out[38]
*211 la_data_out[39]
*212 la_data_out[3]
*213 la_data_out[40]
*214 la_data_out[41]
*215 la_data_out[42]
*216 la_data_out[43]
*217 la_data_out[44]
*218 la_data_out[45]
*219 la_data_out[46]
*220 la_data_out[47]
*221 la_data_out[48]
*222 la_data_out[49]
*223 la_data_out[4]
*224 la_data_out[50]
*225 la_data_out[51]
*226 la_data_out[52]
*227 la_data_out[53]
*228 la_data_out[54]
*229 la_data_out[55]
*230 la_data_out[56]
*231 la_data_out[57]
*232 la_data_out[58]
*233 la_data_out[59]
*234 la_data_out[5]
*235 la_data_out[60]
*236 la_data_out[61]
*237 la_data_out[62]
*238 la_data_out[63]
*239 la_data_out[6]
*240 la_data_out[7]
*241 la_data_out[8]
*242 la_data_out[9]
*243 la_oenb[0]
*244 la_oenb[10]
*245 la_oenb[11]
*246 la_oenb[12]
*247 la_oenb[13]
*248 la_oenb[14]
*249 la_oenb[15]
*250 la_oenb[16]
*251 la_oenb[17]
*252 la_oenb[18]
*253 la_oenb[19]
*254 la_oenb[1]
*255 la_oenb[20]
*256 la_oenb[21]
*257 la_oenb[22]
*258 la_oenb[23]
*259 la_oenb[24]
*260 la_oenb[25]
*261 la_oenb[26]
*262 la_oenb[27]
*263 la_oenb[28]
*264 la_oenb[29]
*265 la_oenb[2]
*266 la_oenb[30]
*267 la_oenb[31]
*268 la_oenb[32]
*269 la_oenb[33]
*270 la_oenb[34]
*271 la_oenb[35]
*272 la_oenb[36]
*273 la_oenb[37]
*274 la_oenb[38]
*275 la_oenb[39]
*276 la_oenb[3]
*277 la_oenb[40]
*278 la_oenb[41]
*279 la_oenb[42]
*280 la_oenb[43]
*281 la_oenb[44]
*282 la_oenb[45]
*283 la_oenb[46]
*284 la_oenb[47]
*285 la_oenb[48]
*286 la_oenb[49]
*287 la_oenb[4]
*288 la_oenb[50]
*289 la_oenb[51]
*290 la_oenb[52]
*291 la_oenb[53]
*292 la_oenb[54]
*293 la_oenb[55]
*294 la_oenb[56]
*295 la_oenb[57]
*296 la_oenb[58]
*297 la_oenb[59]
*298 la_oenb[5]
*299 la_oenb[60]
*300 la_oenb[61]
*301 la_oenb[62]
*302 la_oenb[63]
*303 la_oenb[6]
*304 la_oenb[7]
*305 la_oenb[8]
*306 la_oenb[9]
*307 user_clock2
*308 user_irq[0]
*309 user_irq[1]
*310 user_irq[2]
*313 wb_clk_i
*314 wb_rst_i
*315 wbs_ack_o
*316 wbs_adr_i[0]
*317 wbs_adr_i[10]
*318 wbs_adr_i[11]
*319 wbs_adr_i[12]
*320 wbs_adr_i[13]
*321 wbs_adr_i[14]
*322 wbs_adr_i[15]
*323 wbs_adr_i[16]
*324 wbs_adr_i[17]
*325 wbs_adr_i[18]
*326 wbs_adr_i[19]
*327 wbs_adr_i[1]
*328 wbs_adr_i[20]
*329 wbs_adr_i[21]
*330 wbs_adr_i[22]
*331 wbs_adr_i[23]
*332 wbs_adr_i[24]
*333 wbs_adr_i[25]
*334 wbs_adr_i[26]
*335 wbs_adr_i[27]
*336 wbs_adr_i[28]
*337 wbs_adr_i[29]
*338 wbs_adr_i[2]
*339 wbs_adr_i[30]
*340 wbs_adr_i[31]
*341 wbs_adr_i[3]
*342 wbs_adr_i[4]
*343 wbs_adr_i[5]
*344 wbs_adr_i[6]
*345 wbs_adr_i[7]
*346 wbs_adr_i[8]
*347 wbs_adr_i[9]
*348 wbs_cyc_i
*349 wbs_dat_i[0]
*350 wbs_dat_i[10]
*351 wbs_dat_i[11]
*352 wbs_dat_i[12]
*353 wbs_dat_i[13]
*354 wbs_dat_i[14]
*355 wbs_dat_i[15]
*356 wbs_dat_i[16]
*357 wbs_dat_i[17]
*358 wbs_dat_i[18]
*359 wbs_dat_i[19]
*360 wbs_dat_i[1]
*361 wbs_dat_i[20]
*362 wbs_dat_i[21]
*363 wbs_dat_i[22]
*364 wbs_dat_i[23]
*365 wbs_dat_i[24]
*366 wbs_dat_i[25]
*367 wbs_dat_i[26]
*368 wbs_dat_i[27]
*369 wbs_dat_i[28]
*370 wbs_dat_i[29]
*371 wbs_dat_i[2]
*372 wbs_dat_i[30]
*373 wbs_dat_i[31]
*374 wbs_dat_i[3]
*375 wbs_dat_i[4]
*376 wbs_dat_i[5]
*377 wbs_dat_i[6]
*378 wbs_dat_i[7]
*379 wbs_dat_i[8]
*380 wbs_dat_i[9]
*381 wbs_dat_o[0]
*382 wbs_dat_o[10]
*383 wbs_dat_o[11]
*384 wbs_dat_o[12]
*385 wbs_dat_o[13]
*386 wbs_dat_o[14]
*387 wbs_dat_o[15]
*388 wbs_dat_o[16]
*389 wbs_dat_o[17]
*390 wbs_dat_o[18]
*391 wbs_dat_o[19]
*392 wbs_dat_o[1]
*393 wbs_dat_o[20]
*394 wbs_dat_o[21]
*395 wbs_dat_o[22]
*396 wbs_dat_o[23]
*397 wbs_dat_o[24]
*398 wbs_dat_o[25]
*399 wbs_dat_o[26]
*400 wbs_dat_o[27]
*401 wbs_dat_o[28]
*402 wbs_dat_o[29]
*403 wbs_dat_o[2]
*404 wbs_dat_o[30]
*405 wbs_dat_o[31]
*406 wbs_dat_o[3]
*407 wbs_dat_o[4]
*408 wbs_dat_o[5]
*409 wbs_dat_o[6]
*410 wbs_dat_o[7]
*411 wbs_dat_o[8]
*412 wbs_dat_o[9]
*413 wbs_sel_i[0]
*414 wbs_sel_i[1]
*415 wbs_sel_i[2]
*416 wbs_sel_i[3]
*417 wbs_stb_i
*418 wbs_we_i
*419 mprj

*PORTS
io_in[0] I
io_in[10] I
io_in[11] I
io_in[12] I
io_in[13] I
io_in[14] I
io_in[15] I
io_in[16] I
io_in[17] I
io_in[18] I
io_in[19] I
io_in[1] I
io_in[20] I
io_in[21] I
io_in[22] I
io_in[23] I
io_in[24] I
io_in[25] I
io_in[26] I
io_in[27] I
io_in[28] I
io_in[29] I
io_in[2] I
io_in[30] I
io_in[31] I
io_in[32] I
io_in[33] I
io_in[34] I
io_in[35] I
io_in[36] I
io_in[37] I
io_in[3] I
io_in[4] I
io_in[5] I
io_in[6] I
io_in[7] I
io_in[8] I
io_in[9] I
io_oeb[0] O
io_oeb[10] O
io_oeb[11] O
io_oeb[12] O
io_oeb[13] O
io_oeb[14] O
io_oeb[15] O
io_oeb[16] O
io_oeb[17] O
io_oeb[18] O
io_oeb[19] O
io_oeb[1] O
io_oeb[20] O
io_oeb[21] O
io_oeb[22] O
io_oeb[23] O
io_oeb[24] O
io_oeb[25] O
io_oeb[26] O
io_oeb[27] O
io_oeb[28] O
io_oeb[29] O
io_oeb[2] O
io_oeb[30] O
io_oeb[31] O
io_oeb[32] O
io_oeb[33] O
io_oeb[34] O
io_oeb[35] O
io_oeb[36] O
io_oeb[37] O
io_oeb[3] O
io_oeb[4] O
io_oeb[5] O
io_oeb[6] O
io_oeb[7] O
io_oeb[8] O
io_oeb[9] O
io_out[0] O
io_out[10] O
io_out[11] O
io_out[12] O
io_out[13] O
io_out[14] O
io_out[15] O
io_out[16] O
io_out[17] O
io_out[18] O
io_out[19] O
io_out[1] O
io_out[20] O
io_out[21] O
io_out[22] O
io_out[23] O
io_out[24] O
io_out[25] O
io_out[26] O
io_out[27] O
io_out[28] O
io_out[29] O
io_out[2] O
io_out[30] O
io_out[31] O
io_out[32] O
io_out[33] O
io_out[34] O
io_out[35] O
io_out[36] O
io_out[37] O
io_out[3] O
io_out[4] O
io_out[5] O
io_out[6] O
io_out[7] O
io_out[8] O
io_out[9] O
la_data_in[0] I
la_data_in[10] I
la_data_in[11] I
la_data_in[12] I
la_data_in[13] I
la_data_in[14] I
la_data_in[15] I
la_data_in[16] I
la_data_in[17] I
la_data_in[18] I
la_data_in[19] I
la_data_in[1] I
la_data_in[20] I
la_data_in[21] I
la_data_in[22] I
la_data_in[23] I
la_data_in[24] I
la_data_in[25] I
la_data_in[26] I
la_data_in[27] I
la_data_in[28] I
la_data_in[29] I
la_data_in[2] I
la_data_in[30] I
la_data_in[31] I
la_data_in[32] I
la_data_in[33] I
la_data_in[34] I
la_data_in[35] I
la_data_in[36] I
la_data_in[37] I
la_data_in[38] I
la_data_in[39] I
la_data_in[3] I
la_data_in[40] I
la_data_in[41] I
la_data_in[42] I
la_data_in[43] I
la_data_in[44] I
la_data_in[45] I
la_data_in[46] I
la_data_in[47] I
la_data_in[48] I
la_data_in[49] I
la_data_in[4] I
la_data_in[50] I
la_data_in[51] I
la_data_in[52] I
la_data_in[53] I
la_data_in[54] I
la_data_in[55] I
la_data_in[56] I
la_data_in[57] I
la_data_in[58] I
la_data_in[59] I
la_data_in[5] I
la_data_in[60] I
la_data_in[61] I
la_data_in[62] I
la_data_in[63] I
la_data_in[6] I
la_data_in[7] I
la_data_in[8] I
la_data_in[9] I
la_data_out[0] O
la_data_out[10] O
la_data_out[11] O
la_data_out[12] O
la_data_out[13] O
la_data_out[14] O
la_data_out[15] O
la_data_out[16] O
la_data_out[17] O
la_data_out[18] O
la_data_out[19] O
la_data_out[1] O
la_data_out[20] O
la_data_out[21] O
la_data_out[22] O
la_data_out[23] O
la_data_out[24] O
la_data_out[25] O
la_data_out[26] O
la_data_out[27] O
la_data_out[28] O
la_data_out[29] O
la_data_out[2] O
la_data_out[30] O
la_data_out[31] O
la_data_out[32] O
la_data_out[33] O
la_data_out[34] O
la_data_out[35] O
la_data_out[36] O
la_data_out[37] O
la_data_out[38] O
la_data_out[39] O
la_data_out[3] O
la_data_out[40] O
la_data_out[41] O
la_data_out[42] O
la_data_out[43] O
la_data_out[44] O
la_data_out[45] O
la_data_out[46] O
la_data_out[47] O
la_data_out[48] O
la_data_out[49] O
la_data_out[4] O
la_data_out[50] O
la_data_out[51] O
la_data_out[52] O
la_data_out[53] O
la_data_out[54] O
la_data_out[55] O
la_data_out[56] O
la_data_out[57] O
la_data_out[58] O
la_data_out[59] O
la_data_out[5] O
la_data_out[60] O
la_data_out[61] O
la_data_out[62] O
la_data_out[63] O
la_data_out[6] O
la_data_out[7] O
la_data_out[8] O
la_data_out[9] O
la_oenb[0] I
la_oenb[10] I
la_oenb[11] I
la_oenb[12] I
la_oenb[13] I
la_oenb[14] I
la_oenb[15] I
la_oenb[16] I
la_oenb[17] I
la_oenb[18] I
la_oenb[19] I
la_oenb[1] I
la_oenb[20] I
la_oenb[21] I
la_oenb[22] I
la_oenb[23] I
la_oenb[24] I
la_oenb[25] I
la_oenb[26] I
la_oenb[27] I
la_oenb[28] I
la_oenb[29] I
la_oenb[2] I
la_oenb[30] I
la_oenb[31] I
la_oenb[32] I
la_oenb[33] I
la_oenb[34] I
la_oenb[35] I
la_oenb[36] I
la_oenb[37] I
la_oenb[38] I
la_oenb[39] I
la_oenb[3] I
la_oenb[40] I
la_oenb[41] I
la_oenb[42] I
la_oenb[43] I
la_oenb[44] I
la_oenb[45] I
la_oenb[46] I
la_oenb[47] I
la_oenb[48] I
la_oenb[49] I
la_oenb[4] I
la_oenb[50] I
la_oenb[51] I
la_oenb[52] I
la_oenb[53] I
la_oenb[54] I
la_oenb[55] I
la_oenb[56] I
la_oenb[57] I
la_oenb[58] I
la_oenb[59] I
la_oenb[5] I
la_oenb[60] I
la_oenb[61] I
la_oenb[62] I
la_oenb[63] I
la_oenb[6] I
la_oenb[7] I
la_oenb[8] I
la_oenb[9] I
user_clock2 I
user_irq[0] O
user_irq[1] O
user_irq[2] O
wb_clk_i I
wb_rst_i I
wbs_ack_o O
wbs_adr_i[0] I
wbs_adr_i[10] I
wbs_adr_i[11] I
wbs_adr_i[12] I
wbs_adr_i[13] I
wbs_adr_i[14] I
wbs_adr_i[15] I
wbs_adr_i[16] I
wbs_adr_i[17] I
wbs_adr_i[18] I
wbs_adr_i[19] I
wbs_adr_i[1] I
wbs_adr_i[20] I
wbs_adr_i[21] I
wbs_adr_i[22] I
wbs_adr_i[23] I
wbs_adr_i[24] I
wbs_adr_i[25] I
wbs_adr_i[26] I
wbs_adr_i[27] I
wbs_adr_i[28] I
wbs_adr_i[29] I
wbs_adr_i[2] I
wbs_adr_i[30] I
wbs_adr_i[31] I
wbs_adr_i[3] I
wbs_adr_i[4] I
wbs_adr_i[5] I
wbs_adr_i[6] I
wbs_adr_i[7] I
wbs_adr_i[8] I
wbs_adr_i[9] I
wbs_cyc_i I
wbs_dat_i[0] I
wbs_dat_i[10] I
wbs_dat_i[11] I
wbs_dat_i[12] I
wbs_dat_i[13] I
wbs_dat_i[14] I
wbs_dat_i[15] I
wbs_dat_i[16] I
wbs_dat_i[17] I
wbs_dat_i[18] I
wbs_dat_i[19] I
wbs_dat_i[1] I
wbs_dat_i[20] I
wbs_dat_i[21] I
wbs_dat_i[22] I
wbs_dat_i[23] I
wbs_dat_i[24] I
wbs_dat_i[25] I
wbs_dat_i[26] I
wbs_dat_i[27] I
wbs_dat_i[28] I
wbs_dat_i[29] I
wbs_dat_i[2] I
wbs_dat_i[30] I
wbs_dat_i[31] I
wbs_dat_i[3] I
wbs_dat_i[4] I
wbs_dat_i[5] I
wbs_dat_i[6] I
wbs_dat_i[7] I
wbs_dat_i[8] I
wbs_dat_i[9] I
wbs_dat_o[0] O
wbs_dat_o[10] O
wbs_dat_o[11] O
wbs_dat_o[12] O
wbs_dat_o[13] O
wbs_dat_o[14] O
wbs_dat_o[15] O
wbs_dat_o[16] O
wbs_dat_o[17] O
wbs_dat_o[18] O
wbs_dat_o[19] O
wbs_dat_o[1] O
wbs_dat_o[20] O
wbs_dat_o[21] O
wbs_dat_o[22] O
wbs_dat_o[23] O
wbs_dat_o[24] O
wbs_dat_o[25] O
wbs_dat_o[26] O
wbs_dat_o[27] O
wbs_dat_o[28] O
wbs_dat_o[29] O
wbs_dat_o[2] O
wbs_dat_o[30] O
wbs_dat_o[31] O
wbs_dat_o[3] O
wbs_dat_o[4] O
wbs_dat_o[5] O
wbs_dat_o[6] O
wbs_dat_o[7] O
wbs_dat_o[8] O
wbs_dat_o[9] O
wbs_sel_i[0] I
wbs_sel_i[1] I
wbs_sel_i[2] I
wbs_sel_i[3] I
wbs_stb_i I
wbs_we_i I

*D_NET *3 0.285462
*CONN
*P io_in[11] I
*I *419:io_in[0] I *D user_proj_example
*CAP
1 io_in[11] 0.00106049
2 *419:io_in[0] 0.00353699
3 *3:9 0.056643
4 *3:7 0.0541665
5 *3:9 *6:9 0.170055
*RES
1 io_in[11] *3:7 11.53 
2 *3:7 *3:9 585.884 
3 *3:9 *419:io_in[0] 29.77 
*END

*D_NET *4 0.169323
*CONN
*P io_in[12] I
*I *419:io_in[1] I *D user_proj_example
*CAP
1 io_in[12] 0.00335077
2 *419:io_in[1] 0.0012743
3 *4:9 0.0813107
4 *4:7 0.0833872
*RES
1 io_in[12] *4:7 27.49 
2 *4:7 *4:9 580.412 
3 *4:9 *419:io_in[1] 13.81 
*END

*D_NET *5 0.167774
*CONN
*P io_in[13] I
*I *419:io_in[2] I *D user_proj_example
*CAP
1 io_in[13] 0.00302754
2 *419:io_in[2] 0.0016112
3 *5:9 0.0808592
4 *5:7 0.0822756
*RES
1 io_in[13] *5:7 25.21 
2 *5:7 *5:9 574.94 
3 *5:9 *419:io_in[2] 16.09 
*END

*D_NET *6 0.2815
*CONN
*P io_in[14] I
*I *419:io_in[3] I *D user_proj_example
*CAP
1 io_in[14] 0.00122247
2 *419:io_in[3] 0.00363967
3 *6:9 0.0545001
4 *6:7 0.0520829
5 *3:9 *6:9 0.170055
*RES
1 io_in[14] *6:7 11.378 
2 *6:7 *6:9 569.468 
3 *6:9 *419:io_in[3] 29.922 
*END

*D_NET *7 0.166917
*CONN
*P io_in[15] I
*I *419:io_in[4] I *D user_proj_example
*CAP
1 io_in[15] 0.00105994
2 *419:io_in[4] 0.0022989
3 *7:13 0.0823988
4 *7:11 0.0811598
*RES
1 io_in[15] *7:11 16.258 
2 *7:11 *7:13 549.708 
3 *7:13 *419:io_in[4] 20.65 
*END

*D_NET *8 0.207376
*CONN
*P io_in[16] I
*I *419:io_in[5] I *D user_proj_example
*CAP
1 io_in[16] 0.000999175
2 *419:io_in[5] 5.33612e-05
3 *8:13 0.071339
4 *8:11 0.0712856
5 *8:9 0.0051347
6 *8:7 0.00613387
7 *8:9 *9:9 0.0296119
8 *8:13 *97:6 0.0228181
*RES
1 io_in[16] *8:7 11.378 
2 *8:7 *8:9 71.516 
3 *8:9 *8:11 4.5 
4 *8:11 *8:13 489.212 
5 *8:13 *419:io_in[5] 4.842 
*END

*D_NET *9 0.193516
*CONN
*P io_in[17] I
*I *419:io_in[6] I *D user_proj_example
*CAP
1 io_in[17] 0.00102104
2 *419:io_in[6] 0.000201351
3 *9:13 0.0629221
4 *9:11 0.0627208
5 *9:9 0.0180088
6 *9:7 0.0190299
7 *8:9 *9:9 0.0296119
*RES
1 io_in[17] *9:7 11.53 
2 *9:7 *9:9 163.476 
3 *9:9 *9:11 4.5 
4 *9:11 *9:13 430.084 
5 *9:13 *419:io_in[6] 5.906 
*END

*D_NET *10 0.166336
*CONN
*P io_in[18] I
*I *419:io_in[7] I *D user_proj_example
*CAP
1 io_in[18] 0.00107705
2 *419:io_in[7] 1.9727e-05
3 *10:15 0.0310629
4 *10:13 0.0310432
5 *10:11 0.0509941
6 *10:9 0.0520711
7 *419:io_in[7] *97:6 6.79364e-05
*RES
1 io_in[18] *10:9 16.486 
2 *10:9 *10:11 370.242 
3 *10:11 *10:13 4.5 
4 *10:13 *10:15 105.114 
5 *10:15 *419:io_in[7] 9.18186 
*END

*D_NET *11 0.199169
*CONN
*P io_in[19] I
*I *419:io_in[8] I *D user_proj_example
*CAP
1 io_in[19] 0.0012415
2 *419:io_in[8] 0.000215283
3 *11:17 0.0516997
4 *11:15 0.0514845
5 *11:13 0.046643
6 *11:11 0.0478845
*RES
1 io_in[19] *11:11 17.474 
2 *11:11 *11:13 338.241 
3 *11:13 *11:15 4.5 
4 *11:15 *11:17 174.223 
5 *11:17 *419:io_in[8] 10.4413 
*END

*D_NET *13 0.206839
*CONN
*P io_in[20] I
*I *419:io_in[9] I *D user_proj_example
*CAP
1 io_in[20] 0.00107705
2 *419:io_in[9] 0.000215283
3 *13:15 0.0406052
4 *13:13 0.0403899
5 *13:11 0.0617371
6 *13:9 0.0628142
*RES
1 io_in[20] *13:9 16.486 
2 *13:9 *13:11 447.681 
3 *13:11 *13:13 4.5 
4 *13:13 *13:15 136.995 
5 *13:15 *419:io_in[9] 10.4413 
*END

*D_NET *14 0.41828
*CONN
*P io_in[21] I
*I *419:io_in[10] I *D user_proj_example
*CAP
1 io_in[21] 0.00102104
2 *419:io_in[10] 0.000119063
3 *14:13 0.0409352
4 *14:11 0.0408161
5 *14:9 0.0231402
6 *14:7 0.0241612
7 *14:9 *15:9 0.0618018
8 *14:13 *15:13 0.226285
*RES
1 io_in[21] *14:7 11.53 
2 *14:7 *14:9 238.868 
3 *14:9 *14:11 4.5 
4 *14:11 *14:13 558.676 
5 *14:13 *419:io_in[10] 5.146 
*END

*D_NET *15 0.437987
*CONN
*P io_in[22] I
*I *419:io_in[11] I *D user_proj_example
*CAP
1 io_in[22] 0.000999175
2 *419:io_in[11] 8.44848e-05
3 *15:13 0.0156695
4 *15:11 0.015585
5 *15:9 0.00650764
6 *15:7 0.00750682
7 *15:9 *16:9 0.0243366
8 *15:13 *16:13 0.0792104
9 *14:9 *15:9 0.0618018
10 *14:13 *15:13 0.226285
*RES
1 io_in[22] *15:7 11.378 
2 *15:7 *15:9 148.884 
3 *15:9 *15:11 4.5 
4 *15:11 *15:13 595.308 
5 *15:13 *419:io_in[11] 4.994 
*END

*D_NET *16 0.236985
*CONN
*P io_in[23] I
*I *419:io_in[12] I *D user_proj_example
*CAP
1 io_in[23] 0.000977306
2 *419:io_in[12] 9.46359e-05
3 *16:13 0.0616054
4 *16:11 0.0615107
5 *16:9 0.00413623
6 *16:7 0.00511353
7 *15:9 *16:9 0.0243366
8 *15:13 *16:13 0.0792104
*RES
1 io_in[23] *16:7 11.226 
2 *16:7 *16:9 58.596 
3 *16:9 *16:11 4.5 
4 *16:11 *16:13 631.332 
5 *16:13 *419:io_in[12] 5.146 
*END

*D_NET *17 0.34814
*CONN
*P io_in[24] I
*I *419:io_in[13] I *D user_proj_example
*CAP
1 io_in[24] 0.000717091
2 *419:io_in[13] 0.0021942
3 *17:43 0.00577246
4 *17:31 0.00708202
5 *17:19 0.00705094
6 *17:15 0.00539256
7 *17:9 0.0322797
8 *17:7 0.0311514
9 *419:io_in[13] *18:17 0.00236211
10 *419:io_in[13] *59:24 0.000537751
11 *17:9 *18:9 0.177002
12 *17:9 *59:24 0.00385272
13 *17:9 *59:32 0.0151219
14 *17:9 *60:34 0.00162432
15 *17:15 *18:9 0.00113362
16 *17:15 *18:15 0.00693277
17 *17:15 *18:17 0.00111128
18 *17:15 *60:34 0.00147489
19 *17:19 io_oeb[33] 3.58728e-05
20 *17:19 io_out[33] 0.000483809
21 *17:19 *18:17 0.00982106
22 *17:31 io_out[34] 0.000710502
23 *17:31 *18:17 0.0163284
24 *17:31 *59:24 0.00306449
25 *17:43 io_oeb[34] 5.5613e-05
26 *17:43 io_out[35] 3.58728e-05
27 *17:43 *18:17 0.0132784
28 *17:43 *59:24 0.00153225
*RES
1 io_in[24] *17:7 9.706 
2 *17:7 *17:9 482.296 
3 *17:9 *17:15 32.319 
4 *17:15 *17:19 48.469 
5 *17:19 *17:31 48.792 
6 *17:31 *17:43 48.792 
7 *17:43 *419:io_in[13] 20.954 
*END

*D_NET *18 0.511492
*CONN
*P io_in[25] I
*I *419:io_in[14] I *D user_proj_example
*CAP
1 io_in[25] 0.000751411
2 *419:io_in[14] 0.00170451
3 *18:17 0.00500184
4 *18:15 0.00356464
5 *18:9 0.00539303
6 *18:7 0.00587712
7 *18:9 *19:9 0.156289
8 *18:9 *59:24 0.00055724
9 *18:9 *98:20 0.000530391
10 *18:15 *19:9 1.41733e-05
11 *18:15 *19:15 0.00335157
12 *18:15 *19:17 6.35503e-05
13 *18:17 io_oeb[33] 3.21217e-05
14 *18:17 io_oeb[34] 4.937e-05
15 *18:17 io_oeb[35] 0.000145303
16 *18:17 io_out[33] 0.000475037
17 *18:17 io_out[34] 0.000701729
18 *18:17 io_out[35] 3.21217e-05
19 *18:17 *19:17 0.0805633
20 *18:17 *59:24 0.00999541
21 *18:17 *98:20 0.00842926
22 *419:io_in[13] *18:17 0.00236211
23 *17:9 *18:9 0.177002
24 *17:15 *18:9 0.00113362
25 *17:15 *18:15 0.00693277
26 *17:15 *18:17 0.00111128
27 *17:19 *18:17 0.00982106
28 *17:31 *18:17 0.0163284
29 *17:43 *18:17 0.0132784
*RES
1 io_in[25] *18:7 9.858 
2 *18:7 *18:9 432.535 
3 *18:9 *18:15 17.4474 
4 *18:15 *18:17 193.51 
5 *18:17 *419:io_in[14] 15.026 
*END

*D_NET *19 0.427858
*CONN
*P io_in[26] I
*I *419:io_in[15] I *D user_proj_example
*CAP
1 io_in[26] 0.000785731
2 *419:io_in[15] 0.00163761
3 *19:17 0.0111754
4 *19:15 0.00984597
5 *19:9 0.0181315
6 *19:7 0.0186091
7 *19:9 *100:21 0.0525989
8 *19:15 io_oeb[32] 0.0020609
9 *19:15 *59:24 0.00102403
10 *19:15 *98:20 0.0006593
11 *19:15 *100:21 0.00227602
12 *19:17 *59:24 0.00246009
13 *19:17 *60:24 9.58646e-05
14 *19:17 *60:26 0.00844951
15 *19:17 *98:18 0.000454923
16 *19:17 *98:20 0.000710634
17 *19:17 *100:21 0.0566008
18 *18:9 *19:9 0.156289
19 *18:15 *19:9 1.41733e-05
20 *18:15 *19:15 0.00335157
21 *18:15 *19:17 6.35503e-05
22 *18:17 *19:17 0.0805633
*RES
1 io_in[26] *19:7 10.01 
2 *19:7 *19:9 375.323 
3 *19:9 *19:15 16.4106 
4 *19:15 *19:17 230.478 
5 *19:17 *419:io_in[15] 14.874 
*END

*D_NET *20 0.264726
*CONN
*P io_in[27] I
*I *419:io_in[16] I *D user_proj_example
*CAP
1 io_in[27] 0.00173719
2 *419:io_in[16] 0.00095034
3 *20:9 0.0594197
4 *20:7 0.0602065
5 *20:9 *68:9 0.132948
6 *20:9 *69:9 0.00946375
*RES
1 io_in[27] *20:7 14.266 
2 *20:7 *20:9 600.628 
3 *20:9 *419:io_in[16] 10.618 
*END

*D_NET *59 0.47783
*CONN
*P io_oeb[28] O
*I *419:io_oeb[0] O *D user_proj_example
*CAP
1 io_oeb[28] 0.000613904
2 *419:io_oeb[0] 0.00559785
3 *59:32 0.00877274
4 *59:30 0.00829367
5 *59:24 0.0276055
6 *59:22 0.0276389
7 *59:14 0.106514
8 *59:12 0.111944
9 *59:12 *97:6 5.67847e-05
10 *59:24 *98:20 0.0904148
11 *59:30 io_oeb[31] 5.4019e-05
12 *59:32 *60:34 0.0481417
13 *59:32 *98:28 0.00403551
14 *419:io_in[13] *59:24 0.000537751
15 *17:9 *59:24 0.00385272
16 *17:9 *59:32 0.0151219
17 *17:31 *59:24 0.00306449
18 *17:43 *59:24 0.00153225
19 *18:9 *59:24 0.00055724
20 *18:17 *59:24 0.00999541
21 *19:15 *59:24 0.00102403
22 *19:17 *59:24 0.00246009
*RES
1 *419:io_oeb[0] *59:12 21.9002 
2 *59:12 *59:14 309.8 
3 *59:14 *59:22 14.6807 
4 *59:22 *59:24 298.908 
5 *59:24 *59:30 9.836 
6 *59:30 *59:32 173.052 
7 *59:32 io_oeb[28] 8.946 
*END

*D_NET *60 0.426606
*CONN
*P io_oeb[29] O
*I *419:io_oeb[1] O *D user_proj_example
*CAP
1 io_oeb[29] 0.00060695
2 *419:io_oeb[1] 0.00388601
3 *60:34 0.00467161
4 *60:32 0.0043227
5 *60:26 0.0137808
6 *60:24 0.0137884
7 *60:14 0.0917554
8 *60:12 0.0953756
9 *60:12 *97:6 9.08346e-05
10 *60:26 io_oeb[32] 0.00023612
11 *60:26 *98:20 0.0748093
12 *60:26 *100:21 0.000112274
13 *60:34 *98:28 0.0633832
14 *17:9 *60:34 0.00162432
15 *17:15 *60:34 0.00147489
16 *19:17 *60:24 9.58646e-05
17 *19:17 *60:26 0.00844951
18 *59:32 *60:34 0.0481417
*RES
1 *419:io_oeb[1] *60:12 21.9816 
2 *60:12 *60:14 309.355 
3 *60:14 *60:24 15.4353 
4 *60:24 *60:26 184.756 
5 *60:26 *60:32 10.292 
6 *60:32 *60:34 170.468 
7 *60:34 io_oeb[29] 8.794 
*END

*D_NET *62 0.417132
*CONN
*P io_oeb[30] O
*I *419:io_oeb[2] O *D user_proj_example
*CAP
1 io_oeb[30] 0.000895407
2 *419:io_oeb[2] 0.00410313
3 *62:21 0.00679364
4 *62:19 0.00589824
5 *62:17 0.114387
6 *62:15 0.11849
7 *62:15 *97:6 5.08074e-05
8 *62:21 *100:21 0.0992437
9 *62:21 *101:17 0.0672708
*RES
1 *419:io_oeb[2] *62:15 23.0634 
2 *62:15 *62:17 309.545 
3 *62:17 *62:19 4.5 
4 *62:19 *62:21 238.377 
5 *62:21 io_oeb[30] 10.314 
*END

*D_NET *63 0.333724
*CONN
*P io_oeb[31] O
*I *419:io_oeb[3] O *D user_proj_example
*CAP
1 io_oeb[31] 0.00109736
2 *419:io_oeb[3] 0.00646935
3 *63:21 0.00700086
4 *63:19 0.0059035
5 *63:17 0.118603
6 *63:15 0.125073
7 *63:15 *97:6 0.000226143
8 *63:21 *101:17 0.050721
9 *63:21 *102:19 0.0185756
10 *59:30 io_oeb[31] 5.4019e-05
*RES
1 *419:io_oeb[3] *63:15 23.1846 
2 *63:15 *63:17 309.418 
3 *63:17 *63:19 4.5 
4 *63:19 *63:21 121.804 
5 *63:21 io_oeb[31] 10.618 
*END

*D_NET *64 0.198027
*CONN
*P io_oeb[32] O
*I *419:io_oeb[4] O *D user_proj_example
*CAP
1 io_oeb[32] 0.0010126
2 *419:io_oeb[4] 0.00408582
3 *64:17 0.0927136
4 *64:15 0.0957868
5 io_oeb[32] *100:21 0.00205213
6 *64:15 *97:6 7.93855e-05
7 *19:15 io_oeb[32] 0.0020609
8 *60:26 io_oeb[32] 0.00023612
*RES
1 *419:io_oeb[4] *64:15 22.982 
2 *64:15 *64:17 309.673 
3 *64:17 io_oeb[32] 19.4961 
*END

*D_NET *65 0.279606
*CONN
*P io_oeb[33] O
*I *419:io_oeb[5] O *D user_proj_example
*CAP
1 io_oeb[33] 0.000741145
2 *419:io_oeb[5] 0.000634315
3 *65:13 0.0969865
4 *65:11 0.0962454
5 *65:9 0.000398771
6 *65:7 0.00103309
7 *65:9 *67:9 0.00843383
8 *65:9 *103:9 0.0291421
9 *65:9 *104:9 0.0459233
10 *17:19 io_oeb[33] 3.58728e-05
11 *18:17 io_oeb[33] 3.21217e-05
*RES
1 *419:io_oeb[5] *65:7 8.794 
2 *65:7 *65:9 110.252 
3 *65:9 *65:11 4.5 
4 *65:11 *65:13 324.405 
5 *65:13 io_oeb[33] 14.3064 
*END

*D_NET *66 0.577742
*CONN
*P io_oeb[34] O
*I *419:io_oeb[6] O *D user_proj_example
*CAP
1 io_oeb[34] 0.000744
2 *419:io_oeb[6] 0.000579603
3 *66:13 0.198426
4 *66:11 0.197682
5 *66:9 0.00165577
6 *66:7 0.00223537
7 *66:9 *67:9 0.00429383
8 *66:9 *104:9 0.0775486
9 *66:9 *105:9 0.0944713
10 *17:43 io_oeb[34] 5.5613e-05
11 *18:17 io_oeb[34] 4.937e-05
*RES
1 *419:io_oeb[6] *66:7 8.49 
2 *66:7 *66:9 226.939 
3 *66:9 *66:11 4.5 
4 *66:11 *66:13 324.277 
5 *66:13 io_oeb[34] 14.3553 
*END

*D_NET *67 0.615572
*CONN
*P io_oeb[35] O
*I *419:io_oeb[7] O *D user_proj_example
*CAP
1 io_oeb[35] 0.000775705
2 *419:io_oeb[7] 0.000795331
3 *67:13 0.245975
4 *67:11 0.245199
5 *67:9 0.0309906
6 *67:7 0.0317859
7 *67:9 *103:9 0.0291421
8 *67:9 *104:9 0.0111883
9 *67:9 *105:9 0.00684711
10 *18:17 io_oeb[35] 0.000145303
11 *65:9 *67:9 0.00843383
12 *66:9 *67:9 0.00429383
*RES
1 *419:io_oeb[7] *67:7 9.098 
2 *67:7 *67:9 343.137 
3 *67:9 *67:11 4.5 
4 *67:11 *67:13 324.532 
5 *67:13 io_oeb[35] 14.5887 
*END

*D_NET *68 0.241802
*CONN
*P io_oeb[36] O
*I *419:io_oeb[8] O *D user_proj_example
*CAP
1 io_oeb[36] 0.00148021
2 *419:io_oeb[8] 0.000964554
3 *68:9 0.00978903
4 *68:7 0.00927337
5 *68:9 *69:9 0.0873473
6 *20:9 *68:9 0.132948
*RES
1 *419:io_oeb[8] *68:7 10.466 
2 *68:7 *68:9 319.428 
3 *68:9 io_oeb[36] 14.418 
*END

*D_NET *69 0.141554
*CONN
*P io_oeb[37] O
*I *419:io_oeb[9] O *D user_proj_example
*CAP
1 io_oeb[37] 0.00145957
2 *419:io_oeb[9] 0.000957599
3 *69:9 0.0214138
4 *69:7 0.0209118
5 *20:9 *69:9 0.00946375
6 *68:9 *69:9 0.0873473
*RES
1 *419:io_oeb[9] *69:7 10.314 
2 *69:7 *69:9 267.444 
3 *69:9 io_oeb[37] 14.57 
*END

*D_NET *97 0.383214
*CONN
*P io_out[28] O
*I *419:io_out[0] O *D user_proj_example
*CAP
1 io_out[28] 0.10876
2 *419:io_out[0] 0
3 *97:8 0.10876
4 *97:6 0.0709854
5 *97:4 0.0709854
6 *97:6 *98:8 7.02337e-05
7 *97:6 *100:15 6.33568e-05
8 *97:6 *101:11 9.77041e-05
9 *97:6 *102:13 0.000101897
10 *419:io_in[7] *97:6 6.79364e-05
11 *8:13 *97:6 0.0228181
12 *59:12 *97:6 5.67847e-05
13 *60:12 *97:6 9.08346e-05
14 *62:15 *97:6 5.08074e-05
15 *63:15 *97:6 0.000226143
16 *64:15 *97:6 7.93855e-05
*RES
1 *419:io_out[0] *97:4 4.5 
2 *97:4 *97:6 512.468 
3 *97:6 *97:8 4.5 
4 *97:8 io_out[28] 774.934 
*END

*D_NET *98 0.466244
*CONN
*P io_out[29] O
*I *419:io_out[1] O *D user_proj_example
*CAP
1 io_out[29] 0.00057263
2 *419:io_out[1] 2.00772e-05
3 *98:28 0.0126847
4 *98:26 0.0123424
5 *98:20 0.00317647
6 *98:18 0.00304788
7 *98:10 0.0954919
8 *98:8 0.0954102
9 *98:26 io_out[32] 0
10 *18:9 *98:20 0.000530391
11 *18:17 *98:20 0.00842926
12 *19:15 *98:20 0.0006593
13 *19:17 *98:18 0.000454923
14 *19:17 *98:20 0.000710634
15 *59:24 *98:20 0.0904148
16 *59:32 *98:28 0.00403551
17 *60:26 *98:20 0.0748093
18 *60:34 *98:28 0.0633832
19 *97:6 *98:8 7.02337e-05
*RES
1 *419:io_out[1] *98:8 9.18729 
2 *98:8 *98:10 322.177 
3 *98:10 *98:18 14.5993 
4 *98:18 *98:20 223.516 
5 *98:20 *98:26 10.292 
6 *98:26 *98:28 171.38 
7 *98:28 io_out[29] 8.642 
*END

*D_NET *100 0.412815
*CONN
*P io_out[30] O
*I *419:io_out[2] O *D user_proj_example
*CAP
1 io_out[30] 0.000861087
2 *419:io_out[2] 0.00399686
3 *100:21 0.0043674
4 *100:19 0.00350632
5 *100:17 0.0915699
6 *100:15 0.0955667
7 io_oeb[32] *100:21 0.00205213
8 *19:9 *100:21 0.0525989
9 *19:15 *100:21 0.00227602
10 *19:17 *100:21 0.0566008
11 *60:26 *100:21 0.000112274
12 *62:21 *100:21 0.0992437
13 *97:6 *100:15 6.33568e-05
*RES
1 *419:io_out[2] *100:15 22.5875 
2 *100:15 *100:17 309.609 
3 *100:17 *100:19 4.5 
4 *100:19 *100:21 278.049 
5 *100:21 io_out[30] 10.162 
*END

*D_NET *101 0.317308
*CONN
*P io_out[31] O
*I *419:io_out[3] O *D user_proj_example
*CAP
1 io_out[31] 0.000929727
2 *419:io_out[3] 0.000119336
3 *101:17 0.00408318
4 *101:15 0.00315346
5 *101:13 0.0954066
6 *101:11 0.0955259
7 *62:21 *101:17 0.0672708
8 *63:21 *101:17 0.050721
9 *97:6 *101:11 9.77041e-05
*RES
1 *419:io_out[3] *101:11 9.89843 
2 *101:11 *101:13 322.05 
3 *101:13 *101:15 4.5 
4 *101:15 *101:17 161.476 
5 *101:17 io_out[31] 10.466 
*END

*D_NET *102 0.313041
*CONN
*P io_out[32] O
*I *419:io_out[4] O *D user_proj_example
*CAP
1 io_out[32] 0.000984916
2 *419:io_out[4] 0.000148135
3 *102:19 0.00455362
4 *102:15 0.146049
5 *102:13 0.142628
6 *63:21 *102:19 0.0185756
7 *97:6 *102:13 0.000101897
8 *98:26 io_out[32] 0
*RES
1 *419:io_out[4] *102:13 9.88784 
2 *102:13 *102:15 321.923 
3 *102:15 *102:19 49.1581 
4 *102:19 io_out[32] 10.77 
*END

*D_NET *103 0.255376
*CONN
*P io_out[33] O
*I *419:io_out[5] O *D user_proj_example
*CAP
1 io_out[33] 0.000793136
2 *419:io_out[5] 0.000793547
3 *103:13 0.0970845
4 *103:11 0.0962914
5 *103:9 0.000188343
6 *103:7 0.00098189
7 *17:19 io_out[33] 0.000483809
8 *18:17 io_out[33] 0.000475037
9 *65:9 *103:9 0.0291421
10 *67:9 *103:9 0.0291421
*RES
1 *419:io_out[5] *103:7 8.946 
2 *103:7 *103:9 69.9716 
3 *103:9 *103:11 4.5 
4 *103:11 *103:13 324.468 
5 *103:13 io_out[33] 15.3704 
*END

*D_NET *104 0.333941
*CONN
*P io_out[34] O
*I *419:io_out[6] O *D user_proj_example
*CAP
1 io_out[34] 0.00081929
2 *419:io_out[6] 0.000613923
3 *104:13 0.0969789
4 *104:11 0.0961597
5 *104:9 0.00134129
6 *104:7 0.00195521
7 *17:31 io_out[34] 0.000710502
8 *18:17 io_out[34] 0.000701729