*SPEF "ieee 1481-1999"
*DESIGN "user_project_wrapper"
*DATE "11:11:11 Fri 11 11, 1111"
*VENDOR "OpenRCX"
*PROGRAM "Parallel Extraction"
*VERSION "1.0"
*DESIGN_FLOW "NAME_SCOPE LOCAL" "PIN_CAP NONE"
*DIVIDER /
*DELIMITER :
*BUS_DELIMITER []
*T_UNIT 1 NS
*C_UNIT 1 PF
*R_UNIT 1 OHM
*L_UNIT 1 HENRY

*NAME_MAP
*1 io_in[0]
*2 io_in[10]
*3 io_in[11]
*4 io_in[12]
*5 io_in[13]
*6 io_in[14]
*7 io_in[15]
*8 io_in[16]
*9 io_in[17]
*10 io_in[18]
*11 io_in[19]
*12 io_in[1]
*13 io_in[20]
*14 io_in[21]
*15 io_in[22]
*16 io_in[23]
*17 io_in[24]
*18 io_in[25]
*19 io_in[26]
*20 io_in[27]
*21 io_in[28]
*22 io_in[29]
*23 io_in[2]
*24 io_in[30]
*25 io_in[31]
*26 io_in[32]
*27 io_in[33]
*28 io_in[34]
*29 io_in[35]
*30 io_in[36]
*31 io_in[37]
*32 io_in[3]
*33 io_in[4]
*34 io_in[5]
*35 io_in[6]
*36 io_in[7]
*37 io_in[8]
*38 io_in[9]
*39 io_oeb[0]
*40 io_oeb[10]
*41 io_oeb[11]
*42 io_oeb[12]
*43 io_oeb[13]
*44 io_oeb[14]
*45 io_oeb[15]
*46 io_oeb[16]
*47 io_oeb[17]
*48 io_oeb[18]
*49 io_oeb[19]
*50 io_oeb[1]
*51 io_oeb[20]
*52 io_oeb[21]
*53 io_oeb[22]
*54 io_oeb[23]
*55 io_oeb[24]
*56 io_oeb[25]
*57 io_oeb[26]
*58 io_oeb[27]
*59 io_oeb[28]
*60 io_oeb[29]
*61 io_oeb[2]
*62 io_oeb[30]
*63 io_oeb[31]
*64 io_oeb[32]
*65 io_oeb[33]
*66 io_oeb[34]
*67 io_oeb[35]
*68 io_oeb[36]
*69 io_oeb[37]
*70 io_oeb[3]
*71 io_oeb[4]
*72 io_oeb[5]
*73 io_oeb[6]
*74 io_oeb[7]
*75 io_oeb[8]
*76 io_oeb[9]
*77 io_out[0]
*78 io_out[10]
*79 io_out[11]
*80 io_out[12]
*81 io_out[13]
*82 io_out[14]
*83 io_out[15]
*84 io_out[16]
*85 io_out[17]
*86 io_out[18]
*87 io_out[19]
*88 io_out[1]
*89 io_out[20]
*90 io_out[21]
*91 io_out[22]
*92 io_out[23]
*93 io_out[24]
*94 io_out[25]
*95 io_out[26]
*96 io_out[27]
*97 io_out[28]
*98 io_out[29]
*99 io_out[2]
*100 io_out[30]
*101 io_out[31]
*102 io_out[32]
*103 io_out[33]
*104 io_out[34]
*105 io_out[35]
*106 io_out[36]
*107 io_out[37]
*108 io_out[3]
*109 io_out[4]
*110 io_out[5]
*111 io_out[6]
*112 io_out[7]
*113 io_out[8]
*114 io_out[9]
*115 la_data_in[0]
*116 la_data_in[10]
*117 la_data_in[11]
*118 la_data_in[12]
*119 la_data_in[13]
*120 la_data_in[14]
*121 la_data_in[15]
*122 la_data_in[16]
*123 la_data_in[17]
*124 la_data_in[18]
*125 la_data_in[19]
*126 la_data_in[1]
*127 la_data_in[20]
*128 la_data_in[21]
*129 la_data_in[22]
*130 la_data_in[23]
*131 la_data_in[24]
*132 la_data_in[25]
*133 la_data_in[26]
*134 la_data_in[27]
*135 la_data_in[28]
*136 la_data_in[29]
*137 la_data_in[2]
*138 la_data_in[30]
*139 la_data_in[31]
*140 la_data_in[32]
*141 la_data_in[33]
*142 la_data_in[34]
*143 la_data_in[35]
*144 la_data_in[36]
*145 la_data_in[37]
*146 la_data_in[38]
*147 la_data_in[39]
*148 la_data_in[3]
*149 la_data_in[40]
*150 la_data_in[41]
*151 la_data_in[42]
*152 la_data_in[43]
*153 la_data_in[44]
*154 la_data_in[45]
*155 la_data_in[46]
*156 la_data_in[47]
*157 la_data_in[48]
*158 la_data_in[49]
*159 la_data_in[4]
*160 la_data_in[50]
*161 la_data_in[51]
*162 la_data_in[52]
*163 la_data_in[53]
*164 la_data_in[54]
*165 la_data_in[55]
*166 la_data_in[56]
*167 la_data_in[57]
*168 la_data_in[58]
*169 la_data_in[59]
*170 la_data_in[5]
*171 la_data_in[60]
*172 la_data_in[61]
*173 la_data_in[62]
*174 la_data_in[63]
*175 la_data_in[6]
*176 la_data_in[7]
*177 la_data_in[8]
*178 la_data_in[9]
*179 la_data_out[0]
*180 la_data_out[10]
*181 la_data_out[11]
*182 la_data_out[12]
*183 la_data_out[13]
*184 la_data_out[14]
*185 la_data_out[15]
*186 la_data_out[16]
*187 la_data_out[17]
*188 la_data_out[18]
*189 la_data_out[19]
*190 la_data_out[1]
*191 la_data_out[20]
*192 la_data_out[21]
*193 la_data_out[22]
*194 la_data_out[23]
*195 la_data_out[24]
*196 la_data_out[25]
*197 la_data_out[26]
*198 la_data_out[27]
*199 la_data_out[28]
*200 la_data_out[29]
*201 la_data_out[2]
*202 la_data_out[30]
*203 la_data_out[31]
*204 la_data_out[32]
*205 la_data_out[33]
*206 la_data_out[34]
*207 la_data_out[35]
*208 la_data_out[36]
*209 la_data_out[37]
*210 la_data_out[38]
*211 la_data_out[39]
*212 la_data_out[3]
*213 la_data_out[40]
*214 la_data_out[41]
*215 la_data_out[42]
*216 la_data_out[43]
*217 la_data_out[44]
*218 la_data_out[45]
*219 la_data_out[46]
*220 la_data_out[47]
*221 la_data_out[48]
*222 la_data_out[49]
*223 la_data_out[4]
*224 la_data_out[50]
*225 la_data_out[51]
*226 la_data_out[52]
*227 la_data_out[53]
*228 la_data_out[54]
*229 la_data_out[55]
*230 la_data_out[56]
*231 la_data_out[57]
*232 la_data_out[58]
*233 la_data_out[59]
*234 la_data_out[5]
*235 la_data_out[60]
*236 la_data_out[61]
*237 la_data_out[62]
*238 la_data_out[63]
*239 la_data_out[6]
*240 la_data_out[7]
*241 la_data_out[8]
*242 la_data_out[9]
*243 la_oenb[0]
*244 la_oenb[10]
*245 la_oenb[11]
*246 la_oenb[12]
*247 la_oenb[13]
*248 la_oenb[14]
*249 la_oenb[15]
*250 la_oenb[16]
*251 la_oenb[17]
*252 la_oenb[18]
*253 la_oenb[19]
*254 la_oenb[1]
*255 la_oenb[20]
*256 la_oenb[21]
*257 la_oenb[22]
*258 la_oenb[23]
*259 la_oenb[24]
*260 la_oenb[25]
*261 la_oenb[26]
*262 la_oenb[27]
*263 la_oenb[28]
*264 la_oenb[29]
*265 la_oenb[2]
*266 la_oenb[30]
*267 la_oenb[31]
*268 la_oenb[32]
*269 la_oenb[33]
*270 la_oenb[34]
*271 la_oenb[35]
*272 la_oenb[36]
*273 la_oenb[37]
*274 la_oenb[38]
*275 la_oenb[39]
*276 la_oenb[3]
*277 la_oenb[40]
*278 la_oenb[41]
*279 la_oenb[42]
*280 la_oenb[43]
*281 la_oenb[44]
*282 la_oenb[45]
*283 la_oenb[46]
*284 la_oenb[47]
*285 la_oenb[48]
*286 la_oenb[49]
*287 la_oenb[4]
*288 la_oenb[50]
*289 la_oenb[51]
*290 la_oenb[52]
*291 la_oenb[53]
*292 la_oenb[54]
*293 la_oenb[55]
*294 la_oenb[56]
*295 la_oenb[57]
*296 la_oenb[58]
*297 la_oenb[59]
*298 la_oenb[5]
*299 la_oenb[60]
*300 la_oenb[61]
*301 la_oenb[62]
*302 la_oenb[63]
*303 la_oenb[6]
*304 la_oenb[7]
*305 la_oenb[8]
*306 la_oenb[9]
*307 user_clock2
*308 user_irq[0]
*309 user_irq[1]
*310 user_irq[2]
*313 wb_clk_i
*314 wb_rst_i
*315 wbs_ack_o
*316 wbs_adr_i[0]
*317 wbs_adr_i[10]
*318 wbs_adr_i[11]
*319 wbs_adr_i[12]
*320 wbs_adr_i[13]
*321 wbs_adr_i[14]
*322 wbs_adr_i[15]
*323 wbs_adr_i[16]
*324 wbs_adr_i[17]
*325 wbs_adr_i[18]
*326 wbs_adr_i[19]
*327 wbs_adr_i[1]
*328 wbs_adr_i[20]
*329 wbs_adr_i[21]
*330 wbs_adr_i[22]
*331 wbs_adr_i[23]
*332 wbs_adr_i[24]
*333 wbs_adr_i[25]
*334 wbs_adr_i[26]
*335 wbs_adr_i[27]
*336 wbs_adr_i[28]
*337 wbs_adr_i[29]
*338 wbs_adr_i[2]
*339 wbs_adr_i[30]
*340 wbs_adr_i[31]
*341 wbs_adr_i[3]
*342 wbs_adr_i[4]
*343 wbs_adr_i[5]
*344 wbs_adr_i[6]
*345 wbs_adr_i[7]
*346 wbs_adr_i[8]
*347 wbs_adr_i[9]
*348 wbs_cyc_i
*349 wbs_dat_i[0]
*350 wbs_dat_i[10]
*351 wbs_dat_i[11]
*352 wbs_dat_i[12]
*353 wbs_dat_i[13]
*354 wbs_dat_i[14]
*355 wbs_dat_i[15]
*356 wbs_dat_i[16]
*357 wbs_dat_i[17]
*358 wbs_dat_i[18]
*359 wbs_dat_i[19]
*360 wbs_dat_i[1]
*361 wbs_dat_i[20]
*362 wbs_dat_i[21]
*363 wbs_dat_i[22]
*364 wbs_dat_i[23]
*365 wbs_dat_i[24]
*366 wbs_dat_i[25]
*367 wbs_dat_i[26]
*368 wbs_dat_i[27]
*369 wbs_dat_i[28]
*370 wbs_dat_i[29]
*371 wbs_dat_i[2]
*372 wbs_dat_i[30]
*373 wbs_dat_i[31]
*374 wbs_dat_i[3]
*375 wbs_dat_i[4]
*376 wbs_dat_i[5]
*377 wbs_dat_i[6]
*378 wbs_dat_i[7]
*379 wbs_dat_i[8]
*380 wbs_dat_i[9]
*381 wbs_dat_o[0]
*382 wbs_dat_o[10]
*383 wbs_dat_o[11]
*384 wbs_dat_o[12]
*385 wbs_dat_o[13]
*386 wbs_dat_o[14]
*387 wbs_dat_o[15]
*388 wbs_dat_o[16]
*389 wbs_dat_o[17]
*390 wbs_dat_o[18]
*391 wbs_dat_o[19]
*392 wbs_dat_o[1]
*393 wbs_dat_o[20]
*394 wbs_dat_o[21]
*395 wbs_dat_o[22]
*396 wbs_dat_o[23]
*397 wbs_dat_o[24]
*398 wbs_dat_o[25]
*399 wbs_dat_o[26]
*400 wbs_dat_o[27]
*401 wbs_dat_o[28]
*402 wbs_dat_o[29]
*403 wbs_dat_o[2]
*404 wbs_dat_o[30]
*405 wbs_dat_o[31]
*406 wbs_dat_o[3]
*407 wbs_dat_o[4]
*408 wbs_dat_o[5]
*409 wbs_dat_o[6]
*410 wbs_dat_o[7]
*411 wbs_dat_o[8]
*412 wbs_dat_o[9]
*413 wbs_sel_i[0]
*414 wbs_sel_i[1]
*415 wbs_sel_i[2]
*416 wbs_sel_i[3]
*417 wbs_stb_i
*418 wbs_we_i
*419 mprj

*PORTS
io_in[0] I
io_in[10] I
io_in[11] I
io_in[12] I
io_in[13] I
io_in[14] I
io_in[15] I
io_in[16] I
io_in[17] I
io_in[18] I
io_in[19] I
io_in[1] I
io_in[20] I
io_in[21] I
io_in[22] I
io_in[23] I
io_in[24] I
io_in[25] I
io_in[26] I
io_in[27] I
io_in[28] I
io_in[29] I
io_in[2] I
io_in[30] I
io_in[31] I
io_in[32] I
io_in[33] I
io_in[34] I
io_in[35] I
io_in[36] I
io_in[37] I
io_in[3] I
io_in[4] I
io_in[5] I
io_in[6] I
io_in[7] I
io_in[8] I
io_in[9] I
io_oeb[0] O
io_oeb[10] O
io_oeb[11] O
io_oeb[12] O
io_oeb[13] O
io_oeb[14] O
io_oeb[15] O
io_oeb[16] O
io_oeb[17] O
io_oeb[18] O
io_oeb[19] O
io_oeb[1] O
io_oeb[20] O
io_oeb[21] O
io_oeb[22] O
io_oeb[23] O
io_oeb[24] O
io_oeb[25] O
io_oeb[26] O
io_oeb[27] O
io_oeb[28] O
io_oeb[29] O
io_oeb[2] O
io_oeb[30] O
io_oeb[31] O
io_oeb[32] O
io_oeb[33] O
io_oeb[34] O
io_oeb[35] O
io_oeb[36] O
io_oeb[37] O
io_oeb[3] O
io_oeb[4] O
io_oeb[5] O
io_oeb[6] O
io_oeb[7] O
io_oeb[8] O
io_oeb[9] O
io_out[0] O
io_out[10] O
io_out[11] O
io_out[12] O
io_out[13] O
io_out[14] O
io_out[15] O
io_out[16] O
io_out[17] O
io_out[18] O
io_out[19] O
io_out[1] O
io_out[20] O
io_out[21] O
io_out[22] O
io_out[23] O
io_out[24] O
io_out[25] O
io_out[26] O
io_out[27] O
io_out[28] O
io_out[29] O
io_out[2] O
io_out[30] O
io_out[31] O
io_out[32] O
io_out[33] O
io_out[34] O
io_out[35] O
io_out[36] O
io_out[37] O
io_out[3] O
io_out[4] O
io_out[5] O
io_out[6] O
io_out[7] O
io_out[8] O
io_out[9] O
la_data_in[0] I
la_data_in[10] I
la_data_in[11] I
la_data_in[12] I
la_data_in[13] I
la_data_in[14] I
la_data_in[15] I
la_data_in[16] I
la_data_in[17] I
la_data_in[18] I
la_data_in[19] I
la_data_in[1] I
la_data_in[20] I
la_data_in[21] I
la_data_in[22] I
la_data_in[23] I
la_data_in[24] I
la_data_in[25] I
la_data_in[26] I
la_data_in[27] I
la_data_in[28] I
la_data_in[29] I
la_data_in[2] I
la_data_in[30] I
la_data_in[31] I
la_data_in[32] I
la_data_in[33] I
la_data_in[34] I
la_data_in[35] I
la_data_in[36] I
la_data_in[37] I
la_data_in[38] I
la_data_in[39] I
la_data_in[3] I
la_data_in[40] I
la_data_in[41] I
la_data_in[42] I
la_data_in[43] I
la_data_in[44] I
la_data_in[45] I
la_data_in[46] I
la_data_in[47] I
la_data_in[48] I
la_data_in[49] I
la_data_in[4] I
la_data_in[50] I
la_data_in[51] I
la_data_in[52] I
la_data_in[53] I
la_data_in[54] I
la_data_in[55] I
la_data_in[56] I
la_data_in[57] I
la_data_in[58] I
la_data_in[59] I
la_data_in[5] I
la_data_in[60] I
la_data_in[61] I
la_data_in[62] I
la_data_in[63] I
la_data_in[6] I
la_data_in[7] I
la_data_in[8] I
la_data_in[9] I
la_data_out[0] O
la_data_out[10] O
la_data_out[11] O
la_data_out[12] O
la_data_out[13] O
la_data_out[14] O
la_data_out[15] O
la_data_out[16] O
la_data_out[17] O
la_data_out[18] O
la_data_out[19] O
la_data_out[1] O
la_data_out[20] O
la_data_out[21] O
la_data_out[22] O
la_data_out[23] O
la_data_out[24] O
la_data_out[25] O
la_data_out[26] O
la_data_out[27] O
la_data_out[28] O
la_data_out[29] O
la_data_out[2] O
la_data_out[30] O
la_data_out[31] O
la_data_out[32] O
la_data_out[33] O
la_data_out[34] O
la_data_out[35] O
la_data_out[36] O
la_data_out[37] O
la_data_out[38] O
la_data_out[39] O
la_data_out[3] O
la_data_out[40] O
la_data_out[41] O
la_data_out[42] O
la_data_out[43] O
la_data_out[44] O
la_data_out[45] O
la_data_out[46] O
la_data_out[47] O
la_data_out[48] O
la_data_out[49] O
la_data_out[4] O
la_data_out[50] O
la_data_out[51] O
la_data_out[52] O
la_data_out[53] O
la_data_out[54] O
la_data_out[55] O
la_data_out[56] O
la_data_out[57] O
la_data_out[58] O
la_data_out[59] O
la_data_out[5] O
la_data_out[60] O
la_data_out[61] O
la_data_out[62] O
la_data_out[63] O
la_data_out[6] O
la_data_out[7] O
la_data_out[8] O
la_data_out[9] O
la_oenb[0] I
la_oenb[10] I
la_oenb[11] I
la_oenb[12] I
la_oenb[13] I
la_oenb[14] I
la_oenb[15] I
la_oenb[16] I
la_oenb[17] I
la_oenb[18] I
la_oenb[19] I
la_oenb[1] I
la_oenb[20] I
la_oenb[21] I
la_oenb[22] I
la_oenb[23] I
la_oenb[24] I
la_oenb[25] I
la_oenb[26] I
la_oenb[27] I
la_oenb[28] I
la_oenb[29] I
la_oenb[2] I
la_oenb[30] I
la_oenb[31] I
la_oenb[32] I
la_oenb[33] I
la_oenb[34] I
la_oenb[35] I
la_oenb[36] I
la_oenb[37] I
la_oenb[38] I
la_oenb[39] I
la_oenb[3] I
la_oenb[40] I
la_oenb[41] I
la_oenb[42] I
la_oenb[43] I
la_oenb[44] I
la_oenb[45] I
la_oenb[46] I
la_oenb[47] I
la_oenb[48] I
la_oenb[49] I
la_oenb[4] I
la_oenb[50] I
la_oenb[51] I
la_oenb[52] I
la_oenb[53] I
la_oenb[54] I
la_oenb[55] I
la_oenb[56] I
la_oenb[57] I
la_oenb[58] I
la_oenb[59] I
la_oenb[5] I
la_oenb[60] I
la_oenb[61] I
la_oenb[62] I
la_oenb[63] I
la_oenb[6] I
la_oenb[7] I
la_oenb[8] I
la_oenb[9] I
user_clock2 I
user_irq[0] O
user_irq[1] O
user_irq[2] O
wb_clk_i I
wb_rst_i I
wbs_ack_o O
wbs_adr_i[0] I
wbs_adr_i[10] I
wbs_adr_i[11] I
wbs_adr_i[12] I
wbs_adr_i[13] I
wbs_adr_i[14] I
wbs_adr_i[15] I
wbs_adr_i[16] I
wbs_adr_i[17] I
wbs_adr_i[18] I
wbs_adr_i[19] I
wbs_adr_i[1] I
wbs_adr_i[20] I
wbs_adr_i[21] I
wbs_adr_i[22] I
wbs_adr_i[23] I
wbs_adr_i[24] I
wbs_adr_i[25] I
wbs_adr_i[26] I
wbs_adr_i[27] I
wbs_adr_i[28] I
wbs_adr_i[29] I
wbs_adr_i[2] I
wbs_adr_i[30] I
wbs_adr_i[31] I
wbs_adr_i[3] I
wbs_adr_i[4] I
wbs_adr_i[5] I
wbs_adr_i[6] I
wbs_adr_i[7] I
wbs_adr_i[8] I
wbs_adr_i[9] I
wbs_cyc_i I
wbs_dat_i[0] I
wbs_dat_i[10] I
wbs_dat_i[11] I
wbs_dat_i[12] I
wbs_dat_i[13] I
wbs_dat_i[14] I
wbs_dat_i[15] I
wbs_dat_i[16] I
wbs_dat_i[17] I
wbs_dat_i[18] I
wbs_dat_i[19] I
wbs_dat_i[1] I
wbs_dat_i[20] I
wbs_dat_i[21] I
wbs_dat_i[22] I
wbs_dat_i[23] I
wbs_dat_i[24] I
wbs_dat_i[25] I
wbs_dat_i[26] I
wbs_dat_i[27] I
wbs_dat_i[28] I
wbs_dat_i[29] I
wbs_dat_i[2] I
wbs_dat_i[30] I
wbs_dat_i[31] I
wbs_dat_i[3] I
wbs_dat_i[4] I
wbs_dat_i[5] I
wbs_dat_i[6] I
wbs_dat_i[7] I
wbs_dat_i[8] I
wbs_dat_i[9] I
wbs_dat_o[0] O
wbs_dat_o[10] O
wbs_dat_o[11] O
wbs_dat_o[12] O
wbs_dat_o[13] O
wbs_dat_o[14] O
wbs_dat_o[15] O
wbs_dat_o[16] O
wbs_dat_o[17] O
wbs_dat_o[18] O
wbs_dat_o[19] O
wbs_dat_o[1] O
wbs_dat_o[20] O
wbs_dat_o[21] O
wbs_dat_o[22] O
wbs_dat_o[23] O
wbs_dat_o[24] O
wbs_dat_o[25] O
wbs_dat_o[26] O
wbs_dat_o[27] O
wbs_dat_o[28] O
wbs_dat_o[29] O
wbs_dat_o[2] O
wbs_dat_o[30] O
wbs_dat_o[31] O
wbs_dat_o[3] O
wbs_dat_o[4] O
wbs_dat_o[5] O
wbs_dat_o[6] O
wbs_dat_o[7] O
wbs_dat_o[8] O
wbs_dat_o[9] O
wbs_sel_i[0] I
wbs_sel_i[1] I
wbs_sel_i[2] I
wbs_sel_i[3] I
wbs_stb_i I
wbs_we_i I

*D_NET *3 0.351992
*CONN
*P io_in[11] I
*I *419:io_in[0] I *D user_proj_example
*CAP
1 io_in[11] 0.00121226
2 *419:io_in[0] 0.00392505
3 *3:9 0.0629619
4 *3:7 0.0602491
5 *3:9 *6:9 0.223644
*RES
1 io_in[11] *3:7 14.12 
2 *3:7 *3:9 801.736 
3 *3:9 *419:io_in[0] 39.08 
*END

*D_NET *4 0.187676
*CONN
*P io_in[12] I
*I *419:io_in[1] I *D user_proj_example
*CAP
1 io_in[12] 0.00377968
2 *419:io_in[1] 0.00140078
3 *4:9 0.0900582
4 *4:7 0.0924371
*RES
1 io_in[12] *4:7 35.96 
2 *4:7 *4:9 794.248 
3 *4:9 *419:io_in[1] 17.24 
*END

*D_NET *5 0.18595
*CONN
*P io_in[13] I
*I *419:io_in[2] I *D user_proj_example
*CAP
1 io_in[13] 0.00341909
2 *419:io_in[2] 0.00178287
3 *5:9 0.0895561
4 *5:7 0.0911923
*RES
1 io_in[13] *5:7 32.84 
2 *5:7 *5:9 786.76 
3 *5:9 *419:io_in[2] 20.36 
*END

*D_NET *6 0.347775
*CONN
*P io_in[14] I
*I *419:io_in[3] I *D user_proj_example
*CAP
1 io_in[14] 0.00143005
2 *419:io_in[3] 0.00407668
3 *6:9 0.0606355
4 *6:7 0.0579889
5 *3:9 *6:9 0.223644
*RES
1 io_in[14] *6:7 13.912 
2 *6:7 *6:9 779.272 
3 *6:9 *419:io_in[3] 39.288 
*END

*D_NET *7 0.185511
*CONN
*P io_in[15] I
*I *419:io_in[4] I *D user_proj_example
*CAP
1 io_in[15] 0.00118595
2 *419:io_in[4] 0.00256874
3 *7:13 0.0915696
4 *7:11 0.0901868
*RES
1 io_in[15] *7:11 18.932 
2 *7:11 *7:13 752.232 
3 *7:13 *419:io_in[4] 26.6 
*END

*D_NET *8 0.238961
*CONN
*P io_in[16] I
*I *419:io_in[5] I *D user_proj_example
*CAP
1 io_in[16] 0.00111232
2 *419:io_in[5] 6.03875e-05
3 *8:13 0.0792662
4 *8:11 0.0792058
5 *8:9 0.00576315
6 *8:7 0.00687546
7 *8:9 *9:9 0.0389454
8 *8:13 *97:6 0.0277326
*RES
1 io_in[16] *8:7 13.912 
2 *8:7 *8:9 97.864 
3 *8:9 *8:11 4.5 
4 *8:11 *8:13 669.448 
5 *8:13 *419:io_in[5] 4.968 
*END

*D_NET *9 0.221192
*CONN
*P io_in[17] I
*I *419:io_in[6] I *D user_proj_example
*CAP
1 io_in[17] 0.00113656
2 *419:io_in[6] 0.000225381
3 *9:13 0.0699358
4 *9:11 0.0697104
5 *9:9 0.0200507
6 *9:7 0.0211873
7 *8:9 *9:9 0.0389454
*RES
1 io_in[17] *9:7 14.12 
2 *9:7 *9:9 223.704 
3 *9:9 *9:11 4.5 
4 *9:11 *9:13 588.536 
5 *9:13 *419:io_in[6] 6.424 
*END

*D_NET *10 0.184569
*CONN
*P io_in[18] I
*I *419:io_in[7] I *D user_proj_example
*CAP
1 io_in[18] 0.00119402
2 *419:io_in[7] 2.45441e-05
3 *10:15 0.0345823
4 *10:13 0.0345578
5 *10:11 0.0564632
6 *10:9 0.0576572
7 *419:io_in[7] *97:6 8.98292e-05
*RES
1 io_in[18] *10:9 19.244 
2 *10:9 *10:11 506.647 
3 *10:11 *10:13 4.5 
4 *10:13 *10:15 147.159 
5 *10:15 *419:io_in[7] 9.24886 
*END

*D_NET *11 0.221241
*CONN
*P io_in[19] I
*I *419:io_in[8] I *D user_proj_example
*CAP
1 io_in[19] 0.00138862
2 *419:io_in[8] 0.000245415
3 *11:17 0.057566
4 *11:15 0.0573206
5 *11:13 0.0516661
6 *11:11 0.0530547
*RES
1 io_in[19] *11:11 20.596 
2 *11:11 *11:13 462.856 
3 *11:13 *11:15 4.5 
4 *11:15 *11:17 243.912 
5 *11:17 *419:io_in[8] 10.9723 
*END

*D_NET *13 0.229534
*CONN
*P io_in[20] I
*I *419:io_in[9] I *D user_proj_example
*CAP
1 io_in[20] 0.00119402
2 *419:io_in[9] 0.000245415
3 *13:15 0.0451892
4 *13:13 0.0449438
5 *13:11 0.0683836
6 *13:9 0.0695776
*RES
1 io_in[20] *13:9 19.244 
2 *13:9 *13:11 612.616 
3 *13:11 *13:13 4.5 
4 *13:13 *13:15 191.794 
5 *13:15 *419:io_in[9] 10.9723 
*END

*D_NET *14 0.524919
*CONN
*P io_in[21] I
*I *419:io_in[10] I *D user_proj_example
*CAP
1 io_in[21] 0.00113656
2 *419:io_in[10] 0.000144872
3 *14:13 0.0456532
4 *14:11 0.0455084
5 *14:9 0.0257425
6 *14:7 0.0268791
7 *14:9 *15:9 0.0812751
8 *14:13 *15:13 0.298579
*RES
1 io_in[21] *14:7 14.12 
2 *14:7 *14:9 326.872 
3 *14:9 *14:11 4.5 
4 *14:11 *14:13 764.504 
5 *14:13 *419:io_in[10] 5.384 
*END

*D_NET *15 0.553199
*CONN
*P io_in[22] I
*I *419:io_in[11] I *D user_proj_example
*CAP
1 io_in[22] 0.00111232
2 *419:io_in[11] 0.000100571
3 *15:13 0.0189384
4 *15:11 0.0188379
5 *15:9 0.00731656
6 *15:7 0.00842888
7 *15:9 *16:9 0.0320044
8 *15:13 *16:13 0.0866059
9 *14:9 *15:9 0.0812751
10 *14:13 *15:13 0.298579
*RES
1 io_in[22] *15:7 13.912 
2 *15:7 *15:9 203.736 
3 *15:9 *15:11 4.5 
4 *15:11 *15:13 814.632 
5 *15:13 *419:io_in[11] 5.176 
*END

*D_NET *16 0.269696
*CONN
*P io_in[23] I
*I *419:io_in[12] I *D user_proj_example
*CAP
1 io_in[23] 0.00108807
2 *419:io_in[12] 0.0001056
3 *16:13 0.0698467
4 *16:11 0.0697411
5 *16:9 0.00460814
6 *16:7 0.00569622
7 *15:9 *16:9 0.0320044
8 *15:13 *16:13 0.0866059
*RES
1 io_in[23] *16:7 13.704 
2 *16:7 *16:9 80.184 
3 *16:9 *16:11 4.5 
4 *16:11 *16:13 863.928 
5 *16:13 *419:io_in[12] 5.384 
*END

*D_NET *17 0.43172
*CONN
*P io_in[24] I
*I *419:io_in[13] I *D user_proj_example
*CAP
1 io_in[24] 0.000790409
2 *419:io_in[13] 0.00257758
3 *17:43 0.00515457
4 *17:35 0.00526595
5 *17:27 0.00540052
6 *17:17 0.00665768
7 *17:15 0.00605169
8 *17:9 0.0363819
9 *17:7 0.0350667
10 *419:io_in[13] *18:17 0.00310905
11 *419:io_in[13] *59:24 0.000653569
12 *17:9 *18:9 0.232778
13 *17:9 *59:24 0.0046825
14 *17:9 *59:32 0.0163684
15 *17:9 *60:34 0.0017519
16 *17:15 *18:9 0.00124961
17 *17:15 *18:15 0.00911712
18 *17:15 *18:17 0.0012269
19 *17:15 *60:34 0.00161331
20 *17:17 io_oeb[33] 4.73596e-05
21 *17:17 io_out[33] 0.000636152
22 *17:17 *18:17 0.0112159
23 *17:27 io_out[34] 0.000934114
24 *17:27 *18:17 0.0121366
25 *17:27 *59:24 0.00186225
26 *17:35 io_oeb[34] 7.3334e-05
27 *17:35 *18:17 0.0125299
28 *17:35 *59:24 0.00186225
29 *17:43 io_out[35] 4.73596e-05
30 *17:43 *18:17 0.0126149
31 *17:43 *59:24 0.00186225
*RES
1 io_in[24] *17:7 11.624 
2 *17:7 *17:9 659.984 
3 *17:9 *17:15 44.226 
4 *17:15 *17:17 66.014 
5 *17:17 *17:27 44.824 
6 *17:27 *17:35 44.512 
7 *17:35 *17:43 44.512 
8 *17:43 *419:io_in[13] 27.016 
*END

*D_NET *18 0.664288
*CONN
*P io_in[25] I
*I *419:io_in[14] I *D user_proj_example
*CAP
1 io_in[25] 0.000834531
2 *419:io_in[14] 0.00199977
3 *18:17 0.00593748
4 *18:15 0.00428683
5 *18:9 0.00653261
6 *18:7 0.00701802
7 *18:9 *19:9 0.205537
8 *18:9 *59:24 0.000713894
9 *18:9 *98:20 0.000644624
10 *18:15 *19:9 1.49807e-05
11 *18:15 *19:15 0.00382612
12 *18:15 *19:17 7.0181e-05
13 *18:17 io_oeb[33] 4.18958e-05
14 *18:17 io_oeb[34] 6.46411e-05
15 *18:17 io_oeb[35] 0.000191756
16 *18:17 io_out[33] 0.000625155
17 *18:17 io_out[34] 0.000923117
18 *18:17 io_out[35] 4.18958e-05
19 *18:17 *19:17 0.105956
20 *18:17 *59:24 0.0128054
21 *18:17 *98:20 0.0102447
22 *419:io_in[13] *18:17 0.00310905
23 *17:9 *18:9 0.232778
24 *17:15 *18:9 0.00124961
25 *17:15 *18:15 0.00911712
26 *17:15 *18:17 0.0012269
27 *17:17 *18:17 0.0112159
28 *17:27 *18:17 0.0121366
29 *17:35 *18:17 0.0125299
30 *17:43 *18:17 0.0126149
*RES
1 io_in[25] *18:7 11.832 
2 *18:7 *18:9 591.89 
3 *18:9 *18:15 23.8754 
4 *18:15 *18:17 264.803 
5 *18:17 *419:io_in[14] 18.904 
*END

*D_NET *19 0.549477
*CONN
*P io_in[26] I
*I *419:io_in[15] I *D user_proj_example
*CAP
1 io_in[26] 0.000878653
2 *419:io_in[15] 0.00190317
3 *19:17 0.0127248
4 *19:15 0.0111707
5 *19:9 0.0203983
6 *19:7 0.0209279
7 *19:9 *100:21 0.0691756
8 *19:15 io_oeb[32] 0.00271032
9 *19:15 *59:24 0.00131191
10 *19:15 *98:20 0.000908728
11 *19:15 *100:21 0.00260011
12 *19:17 *59:24 0.00304152
13 *19:17 *60:24 0.000103432
14 *19:17 *60:26 0.0102693
15 *19:17 *98:18 0.000598481
16 *19:17 *98:20 0.000910411
17 *19:17 *100:21 0.0744397
18 *18:9 *19:9 0.205537
19 *18:15 *19:9 1.49807e-05
20 *18:15 *19:15 0.00382612
21 *18:15 *19:17 7.0181e-05
22 *18:17 *19:17 0.105956
*RES
1 io_in[26] *19:7 12.04 
2 *19:7 *19:9 513.6 
3 *19:9 *19:15 22.4566 
4 *19:15 *19:17 315.391 
5 *19:17 *419:io_in[15] 18.696 
*END

*D_NET *20 0.322088
*CONN
*P io_in[27] I
*I *419:io_in[16] I *D user_proj_example
*CAP
1 io_in[27] 0.00203296
2 *419:io_in[16] 0.00109812
3 *20:9 0.0661826
4 *20:7 0.0671174
5 *20:9 *68:9 0.174854
6 *20:9 *69:9 0.0108033
*RES
1 io_in[27] *20:7 17.864 
2 *20:7 *20:9 821.912 
3 *20:9 *419:io_in[16] 12.872 
*END

*D_NET *59 0.56821
*CONN
*P io_oeb[28] O
*I *419:io_oeb[0] O *D user_proj_example
*CAP
1 io_oeb[28] 0.000677376
2 *419:io_oeb[0] 0.00645861
3 *59:32 0.0100736
4 *59:30 0.00956388
5 *59:24 0.0308236
6 *59:22 0.0308438
7 *59:14 0.120488
8 *59:12 0.126759
9 *59:12 *97:6 7.51534e-05
10 *59:24 *98:20 0.119306
11 *59:30 io_oeb[31] 5.55216e-05
12 *59:32 *60:34 0.0633123
13 *59:32 *98:28 0.0046106
14 *419:io_in[13] *59:24 0.000653569
15 *17:9 *59:24 0.0046825
16 *17:9 *59:32 0.0163684
17 *17:27 *59:24 0.00186225
18 *17:35 *59:24 0.00186225
19 *17:43 *59:24 0.00186225
20 *18:9 *59:24 0.000713894
21 *18:17 *59:24 0.0128054
22 *19:15 *59:24 0.00131191
23 *19:17 *59:24 0.00304152
*RES
1 *419:io_oeb[0] *59:12 27.0554 
2 *59:12 *59:14 433.72 
3 *59:14 *59:22 15.1157 
4 *59:22 *59:24 409.032 
5 *59:24 *59:30 10.144 
6 *59:30 *59:32 236.808 
7 *59:32 io_oeb[28] 10.584 
*END

*D_NET *60 0.514406
*CONN
*P io_oeb[29] O
*I *419:io_oeb[1] O *D user_proj_example
*CAP
1 io_oeb[29] 0.000676286
2 *419:io_oeb[1] 0.00435612
3 *60:34 0.00540433
4 *60:32 0.00505138
5 *60:26 0.0154114
6 *60:24 0.0154006
7 *60:14 0.102196
8 *60:12 0.106239
9 *60:12 *97:6 0.000119926
10 *60:26 io_oeb[32] 0.000286975
11 *60:26 *98:20 0.0987114
12 *60:26 *100:21 0.000143837
13 *60:34 *98:28 0.0833583
14 *17:9 *60:34 0.0017519
15 *17:15 *60:34 0.00161331
16 *19:17 *60:24 0.000103432
17 *19:17 *60:26 0.0102693
18 *59:32 *60:34 0.0633123
*RES
1 *419:io_oeb[1] *60:12 27.1668 
2 *60:12 *60:14 433.096 
3 *60:14 *60:24 16.1483 
4 *60:24 *60:26 252.824 
5 *60:26 *60:32 10.768 
6 *60:32 *60:34 233.272 
7 *60:34 io_oeb[29] 10.376 
*END

*D_NET *62 0.504454
*CONN
*P io_oeb[30] O
*I *419:io_oeb[2] O *D user_proj_example
*CAP
1 io_oeb[30] 0.00103143
2 *419:io_oeb[2] 0.00460224
3 *62:21 0.00783313
4 *62:19 0.00680171
5 *62:17 0.130262
6 *62:15 0.134864
7 *62:15 *97:6 6.72425e-05
8 *62:21 *100:21 0.130523
9 *62:21 *101:17 0.0884697
*RES
1 *419:io_oeb[2] *62:15 28.6544 
2 *62:15 *62:17 433.364 
3 *62:17 *62:19 4.5 
4 *62:19 *62:21 326.2 
5 *62:21 io_oeb[30] 12.456 
*END

*D_NET *63 0.393569
*CONN
*P io_oeb[31] O
*I *419:io_oeb[3] O *D user_proj_example
*CAP
1 io_oeb[31] 0.00130628
2 *419:io_oeb[3] 0.00754741
3 *63:21 0.00797526
4 *63:19 0.00666898
5 *63:17 0.135516
6 *63:15 0.143063
7 *63:15 *97:6 0.000299295
8 *63:21 *101:17 0.0667058
9 *63:21 *102:19 0.0244314
10 *59:30 io_oeb[31] 5.55216e-05
*RES
1 *419:io_oeb[3] *63:15 28.8138 
2 *63:15 *63:17 433.185 
3 *63:17 *63:19 4.5 
4 *63:19 *63:21 166.679 
5 *63:21 io_oeb[31] 12.872 
*END

*D_NET *64 0.22166
*CONN
*P io_oeb[32] O
*I *419:io_oeb[4] O *D user_proj_example
*CAP
1 io_oeb[32] 0.00120065
2 *419:io_oeb[4] 0.00458309
3 *64:17 0.103346
4 *64:15 0.106729
5 io_oeb[32] *100:21 0.00269933
6 *64:15 *97:6 0.000104878
7 *19:15 io_oeb[32] 0.00271032
8 *60:26 io_oeb[32] 0.000286975
*RES
1 *419:io_oeb[4] *64:15 28.543 
2 *64:15 *64:17 433.542 
3 *64:17 io_oeb[32] 23.3631 
*END

*D_NET *65 0.327244
*CONN
*P io_oeb[33] O
*I *419:io_oeb[5] O *D user_proj_example
*CAP
1 io_oeb[33] 0.000830218
2 *419:io_oeb[5] 0.000719317
3 *65:13 0.108084
4 *65:11 0.107254
5 *65:9 0.000597593
6 *65:7 0.00131691
7 *65:9 *67:9 0.00963146
8 *65:9 *103:9 0.0383258
9 *65:9 *104:9 0.0603947
10 *17:17 io_oeb[33] 4.73596e-05
11 *18:17 io_oeb[33] 4.18958e-05
*RES
1 *419:io_oeb[5] *65:7 10.376 
2 *65:7 *65:9 150.871 
3 *65:9 *65:11 4.5 
4 *65:11 *65:13 454.166 
5 *65:13 io_oeb[33] 16.2614 
*END

*D_NET *66 0.720512
*CONN
*P io_oeb[34] O
*I *419:io_oeb[6] O *D user_proj_example
*CAP
1 io_oeb[34] 0.000834209
2 *419:io_oeb[6] 0.000652749
3 *66:13 0.241904
4 *66:11 0.241069
5 *66:9 0.0021697
6 *66:7 0.00282245
7 *66:9 *67:9 0.00468953
8 *66:9 *104:9 0.101987
9 *66:9 *105:9 0.124246
10 *17:35 io_oeb[34] 7.3334e-05
11 *18:17 io_oeb[34] 6.46411e-05
*RES
1 *419:io_oeb[6] *66:7 9.96 
2 *66:7 *66:9 310.548 
3 *66:9 *66:11 4.5 
4 *66:11 *66:13 453.988 
5 *66:13 io_oeb[34] 16.3283 
*END

*D_NET *67 0.772391
*CONN
*P io_oeb[35] O
*I *419:io_oeb[7] O *D user_proj_example
*CAP
1 io_oeb[35] 0.000866593
2 *419:io_oeb[7] 0.000917949
3 *67:13 0.314198
4 *67:11 0.313331
5 *67:9 0.0347895
6 *67:7 0.0357074
7 *67:9 *103:9 0.0383258
8 *67:9 *104:9 0.0123267
9 *67:9 *105:9 0.00741614
10 *18:17 io_oeb[35] 0.000191756
11 *65:9 *67:9 0.00963146
12 *66:9 *67:9 0.00468953
*RES
1 *419:io_oeb[7] *67:7 10.792 
2 *67:7 *67:9 469.556 
3 *67:9 *67:11 4.5 
4 *67:11 *67:13 454.345 
5 *67:13 io_oeb[35] 16.6477 
*END

*D_NET *68 0.314477
*CONN
*P io_oeb[36] O
*I *419:io_oeb[8] O *D user_proj_example
*CAP
1 io_oeb[36] 0.00168497
2 *419:io_oeb[8] 0.00112975
3 *68:9 0.011241
4 *68:7 0.0106858
5 *68:9 *69:9 0.114882
6 *20:9 *68:9 0.174854
*RES
1 *419:io_oeb[8] *68:7 12.664 
2 *68:7 *68:9 437.112 
3 *68:9 io_oeb[36] 18.072 
*END

*D_NET *69 0.175961
*CONN
*P io_oeb[37] O
*I *419:io_oeb[9] O *D user_proj_example
*CAP
1 io_oeb[37] 0.00164289
2 *419:io_oeb[9] 0.00112866
3 *69:9 0.024009
4 *69:7 0.0234948
5 *20:9 *69:9 0.0108033
6 *68:9 *69:9 0.114882
*RES
1 *419:io_oeb[9] *69:7 12.456 
2 *69:7 *69:9 365.976 
3 *69:9 io_oeb[37] 18.28 
*END

*D_NET *97 0.428105
*CONN
*P io_out[28] O
*I *419:io_out[0] O *D user_proj_example
*CAP
1 io_out[28] 0.12083
2 *419:io_out[0] 0
3 *97:8 0.12083
4 *97:6 0.0787583
5 *97:4 0.0787583
6 *97:6 *98:8 9.28482e-05
7 *97:6 *100:15 8.38098e-05
8 *97:6 *101:11 0.000128956
9 *97:6 *102:13 0.000133933
10 *419:io_in[7] *97:6 8.98292e-05
11 *8:13 *97:6 0.0277326
12 *59:12 *97:6 7.51534e-05
13 *60:12 *97:6 0.000119926
14 *62:15 *97:6 6.72425e-05
15 *63:15 *97:6 0.000299295
16 *64:15 *97:6 0.000104878
*RES
1 *419:io_out[0] *97:4 4.5 
2 *97:4 *97:6 701.272 
3 *97:6 *97:8 4.5 
4 *97:8 io_out[28] 1060.44 
*END

*D_NET *98 0.567924
*CONN
*P io_out[29] O
*I *419:io_out[1] O *D user_proj_example
*CAP
1 io_out[29] 0.000632163
2 *419:io_out[1] 2.49236e-05
3 *98:28 0.0141772
4 *98:26 0.0138265
5 *98:20 0.0036959
6 *98:18 0.00353266
7 *98:10 0.106371
8 *98:8 0.106278
9 *98:26 io_out[32] 0
10 *18:9 *98:20 0.000644624
11 *18:17 *98:20 0.0102447
12 *19:15 *98:20 0.000908728
13 *19:17 *98:18 0.000598481
14 *19:17 *98:20 0.000910411
15 *59:24 *98:20 0.119306
16 *59:32 *98:28 0.0046106
17 *60:26 *98:20 0.0987114
18 *60:34 *98:28 0.0833583
19 *97:6 *98:8 9.28482e-05
*RES
1 *419:io_out[1] *98:8 9.25629 
2 *98:8 *98:10 451.048 
3 *98:10 *98:18 15.0043 
4 *98:18 *98:20 305.864 
5 *98:20 *98:26 10.768 
6 *98:26 *98:28 234.52 
7 *98:28 io_out[29] 10.168 
*END

*D_NET *100 0.503005
*CONN
*P io_out[30] O
*I *419:io_out[2] O *D user_proj_example
*CAP
1 io_out[30] 0.000987304
2 *419:io_out[2] 0.00448309
3 *100:21 0.0052131
4 *100:19 0.0042258
5 *100:17 0.101974
6 *100:15 0.106457
7 io_oeb[32] *100:21 0.00269933
8 *19:9 *100:21 0.0691756
9 *19:15 *100:21 0.00260011
10 *19:17 *100:21 0.0744397
11 *60:26 *100:21 0.000143837
12 *62:21 *100:21 0.130523
13 *97:6 *100:15 8.38098e-05
*RES
1 *419:io_out[2] *100:15 27.9966 
2 *100:15 *100:17 433.453 
3 *100:17 *100:19 4.5 
4 *100:19 *100:21 380.488 
5 *100:21 io_out[30] 12.248 
*END

*D_NET *101 0.377631
*CONN
*P io_out[31] O
*I *419:io_out[3] O *D user_proj_example
*CAP
1 io_out[31] 0.00107555
2 *419:io_out[3] 0.000135561
3 *101:17 0.00474457
4 *101:15 0.00366902
5 *101:13 0.106283
6 *101:11 0.106419
7 *62:21 *101:17 0.0884697
8 *63:21 *101:17 0.0667058
9 *97:6 *101:11 0.000128956
*RES
1 *419:io_out[3] *101:11 10.2294 
2 *101:11 *101:13 450.87 
3 *101:13 *101:15 4.5 
4 *101:15 *101:17 220.967 
5 *101:17 io_out[31] 12.664 
*END

*D_NET *102 0.363305
*CONN
*P io_out[32] O
*I *419:io_out[4] O *D user_proj_example
*CAP
1 io_out[32] 0.00114594
2 *419:io_out[4] 0.000166996
3 *102:19 0.00516406
4 *102:17 0.00401812
5 *102:15 0.164039
6 *102:13 0.164206
7 *63:21 *102:19 0.0244314
8 *97:6 *102:13 0.000133933
9 *98:26 io_out[32] 0
*RES
1 *419:io_out[4] *102:13 10.2198 
2 *102:13 *102:15 450.692 
3 *102:15 *102:17 4.5 
4 *102:17 *102:19 61.1111 
5 *102:19 io_out[32] 13.08 
*END

*D_NET *103 0.296774
*CONN
*P io_out[33] O
*I *419:io_out[5] O *D user_proj_example
*CAP
1 io_out[33] 0.000893822
2 *419:io_out[5] 0.00093011
3 *103:13 0.108205
4 *103:11 0.107311
5 *103:9 0.000295218
6 *103:7 0.00122533
7 *17:17 io_out[33] 0.000636152
8 *18:17 io_out[33] 0.000625155
9 *65:9 *103:9 0.0383258
10 *67:9 *103:9 0.0383258
*RES
1 *419:io_out[5] *103:7 10.584 
2 *103:7 *103:9 95.7506 
3 *103:9 *103:11 4.5 
4 *103:11 *103:13 454.255 
5 *103:13 io_out[33] 17.7174 
*END

*D_NET *104 0.397771
*CONN
*P io_out[34] O
*I *419:io_out[6] O *D user_proj_example
*CAP